Program Version,EnergyPlus, Version 9.4.0-998c4b761e, YMD=2021.07.14 16:39
! This file shows details about the branches, nodes, and other
! elements of the flow connections.
! This file is intended for use in "debugging" potential problems
! that may also be detected by the program, but may be more easily
! identified by "eye".
! This file is also intended to support software which draws a
! schematic diagram of the HVAC system.
! ===============================================================
! #Nodes,<Number of Unique Nodes>
 #Nodes,173
! <Node>,<NodeNumber>,<Node Name>,<Node Fluid Type>,<# Times Node Referenced After Definition>
 Node,1,DOAS COOLING COIL OUTLET,Air,6
 Node,2,CHILLED WATER LOOP CHW SUPPLY BYPASS INLET,Water,1
 Node,3,CHILLED WATER LOOP CHW SUPPLY BYPASS OUTLET,Water,1
 Node,4,CHILLED WATER LOOP CHW SUPPLY BYPASS INLET2,Water,1
 Node,5,CHILLED WATER LOOP CHW SUPPLY BYPASS OUTLET2,Water,1
 Node,6,CHILLED WATER LOOP CHW SUPPLY INLET,Water,2
 Node,7,CHILLED WATER LOOP CHW PUMP OUTLET,Water,1
 Node,8,CHILLED WATER LOOP CHW SUPPLY INLET2,Water,2
 Node,9,CHILLED WATER LOOP CHW PUMP OUTLET2,Water,1
 Node,10,CHILLED WATER LOOP CHW SUPPLY OUTLET PIPE INLET,Water,1
 Node,11,CHILLED WATER LOOP CHW SUPPLY OUTLET,Water,4
 Node,12,CHILLED WATER LOOP CHW SUPPLY OUTLET PIPE INLET2,Water,1
 Node,13,CHILLED WATER LOOP CHW SUPPLY OUTLET2,Water,4
 Node,14,CHILLED WATER LOOP CHW DEMAND INLET,Water,2
 Node,15,CHILLED WATER LOOP CHW DEMAND INLET PIPE OUTLET,Water,1
 Node,16,CHILLED WATER LOOP CHW DEMAND INLET2,Water,2
 Node,17,CHILLED WATER LOOP CHW DEMAND INLET PIPE OUTLET2,Water,1
 Node,18,CHILLED WATER LOOP CHW DEMAND BYPASS INLET,Water,1
 Node,19,CHILLED WATER LOOP CHW DEMAND BYPASS OUTLET,Water,1
 Node,20,CHILLED WATER LOOP CHW DEMAND BYPASS INLET2,Water,1
 Node,21,CHILLED WATER LOOP CHW DEMAND BYPASS OUTLET2,Water,1
 Node,22,CHILLED WATER LOOP CHW DEMAND OUTLET PIPE INLET,Water,1
 Node,23,CHILLED WATER LOOP CHW DEMAND OUTLET,Water,2
 Node,24,CHILLED WATER LOOP CHW DEMAND OUTLET PIPE INLET2,Water,1
 Node,25,CHILLED WATER LOOP CHW DEMAND OUTLET2,Water,2
 Node,26,CORE_BOT_LOTEMP_CHW_INLET,Water,1
 Node,27,CORE_BOT_LOTEMP_CHW_OUTLET,Water,1
 Node,28,CORE_MID_LOTEMP_CHW_INLET,Water,1
 Node,29,CORE_MID_LOTEMP_CHW_OUTLET,Water,1
 Node,30,CORE_TOP_LOTEMP_CHW_INLET,Water,1
 Node,31,CORE_TOP_LOTEMP_CHW_OUTLET,Water,1
 Node,32,PERI1_TOP_LOTEMP_CHW_INLET,Water,1
 Node,33,PERI1_TOP_LOTEMP_CHW_OUTLET,Water,1
 Node,34,PERI2_TOP_LOTEMP_CHW_INLET,Water,1
 Node,35,PERI2_TOP_LOTEMP_CHW_OUTLET,Water,1
 Node,36,PERI3_TOP_LOTEMP_CHW_INLET,Water,1
 Node,37,PERI3_TOP_LOTEMP_CHW_OUTLET,Water,1
 Node,38,PERI4_TOP_LOTEMP_CHW_INLET,Water,1
 Node,39,PERI4_TOP_LOTEMP_CHW_OUTLET,Water,1
 Node,40,PERI1_MID_LOTEMP_CHW_INLET,Water,1
 Node,41,PERI1_MID_LOTEMP_CHW_OUTLET,Water,1
 Node,42,PERI2_MID_LOTEMP_CHW_INLET,Water,1
 Node,43,PERI2_MID_LOTEMP_CHW_OUTLET,Water,1
 Node,44,PERI3_MID_LOTEMP_CHW_INLET,Water,1
 Node,45,PERI3_MID_LOTEMP_CHW_OUTLET,Water,1
 Node,46,PERI4_MID_LOTEMP_CHW_INLET,Water,1
 Node,47,PERI4_MID_LOTEMP_CHW_OUTLET,Water,1
 Node,48,PERI2_BOT_LOTEMP_CHW_INLET,Water,1
 Node,49,PERI2_BOT_LOTEMP_CHW_OUTLET,Water,1
 Node,50,PERI1_BOT_LOTEMP_CHW_INLET,Water,1
 Node,51,PERI1_BOT_LOTEMP_CHW_OUTLET,Water,1
 Node,52,PERI3_BOT_LOTEMP_CHW_INLET,Water,1
 Node,53,PERI3_BOT_LOTEMP_CHW_OUTLET,Water,1
 Node,54,PERI4_BOT_LOTEMP_CHW_INLET,Water,1
 Node,55,PERI4_BOT_LOTEMP_CHW_OUTLET,Water,1
 Node,56,PURCHASED COOLING INLET NODE,Water,1
 Node,57,PURCHASED COOLING OUTLET NODE,Water,1
 Node,58,PURCHASED COOLING INLET NODE2,Water,1
 Node,59,PURCHASED COOLING OUTLET NODE2,Water,1
 Node,60,PURCHASED HEAT INLET NODE,Water,1
 Node,61,PURCHASED HEAT OUTLET NODE,Water,1
 Node,62,HOT WATER LOOP HW SUPPLY BYPASS INLET,Water,1
 Node,63,HOT WATER LOOP HW SUPPLY BYPASS OUTLET,Water,1
 Node,64,HOT WATER LOOP HW SUPPLY INLET,Water,2
 Node,65,HOT WATER LOOP HW PUMP OUTLET,Water,1
 Node,66,HOT WATER LOOP HW SUPPLY OUTLET PIPE INLET,Water,1
 Node,67,HOT WATER LOOP HW SUPPLY OUTLET,Water,4
 Node,68,HOT WATER LOOP HW DEMAND INLET,Water,2
 Node,69,HOT WATER LOOP HW DEMAND INLET PIPE OUTLET,Water,1
 Node,70,HOT WATER LOOP HW DEMAND BYPASS INLET,Water,1
 Node,71,HOT WATER LOOP HW DEMAND BYPASS OUTLET,Water,1
 Node,72,HOT WATER LOOP HW DEMAND OUTLET PIPE INLET,Water,1
 Node,73,HOT WATER LOOP HW DEMAND OUTLET,Water,2
 Node,74,CORE_TOP RADIANT WATER INLET NODE,Water,1
 Node,75,CORE_TOP RADIANT WATER OUTLET NODE,Water,1
 Node,76,CORE_MID RADIANT WATER INLET NODE,Water,1
 Node,77,CORE_MID RADIANT WATER OUTLET NODE,Water,1
 Node,78,CORE_BOT RADIANT WATER INLET NODE,Water,1
 Node,79,CORE_BOT RADIANT WATER OUTLET NODE,Water,1
 Node,80,PERI1_TOP RADIANT WATER INLET NODE,Water,1
 Node,81,PERI1_TOP RADIANT WATER OUTLET NODE,Water,1
 Node,82,PERI2_TOP RADIANT WATER INLET NODE,Water,1
 Node,83,PERI2_TOP RADIANT WATER OUTLET NODE,Water,1
 Node,84,PERI3_TOP RADIANT WATER INLET NODE,Water,1
 Node,85,PERI3_TOP RADIANT WATER OUTLET NODE,Water,1
 Node,86,PERI4_TOP RADIANT WATER INLET NODE,Water,1
 Node,87,PERI4_TOP RADIANT WATER OUTLET NODE,Water,1
 Node,88,PERI1_MID RADIANT WATER INLET NODE,Water,1
 Node,89,PERI1_MID RADIANT WATER OUTLET NODE,Water,1
 Node,90,PERI2_MID RADIANT WATER INLET NODE,Water,1
 Node,91,PERI2_MID RADIANT WATER OUTLET NODE,Water,1
 Node,92,PERI3_MID RADIANT WATER INLET NODE,Water,1
 Node,93,PERI3_MID RADIANT WATER OUTLET NODE,Water,1
 Node,94,PERI4_MID RADIANT WATER INLET NODE,Water,1
 Node,95,PERI4_MID RADIANT WATER OUTLET NODE,Water,1
 Node,96,PERI1_BOT RADIANT WATER INLET NODE,Water,1
 Node,97,PERI1_BOT RADIANT WATER OUTLET NODE,Water,1
 Node,98,PERI2_BOT RADIANT WATER INLET NODE,Water,1
 Node,99,PERI2_BOT RADIANT WATER OUTLET NODE,Water,1
 Node,100,PERI3_BOT RADIANT WATER INLET NODE,Water,1
 Node,101,PERI3_BOT RADIANT WATER OUTLET NODE,Water,1
 Node,102,PERI4_BOT RADIANT WATER INLET NODE,Water,1
 Node,103,PERI4_BOT RADIANT WATER OUTLET NODE,Water,1
 Node,104,DOAS COOLING COIL CHW INLET,Water,2
 Node,105,DOAS COOLING COIL CHW OUTLET,Water,1
 Node,106,DOAS HEATING COIL HW INLET,Water,2
 Node,107,DOAS HEATING COIL HW OUTLET,Water,1
 Node,108,DOAS AIR LOOP INLET,Air,3
 Node,109,DOAS MIXED AIR OUTLET,Air,5
 Node,110,DOAS HEATING COIL OUTLET,Air,8
 Node,111,DOAS SUPPLY FAN OUTLET,Air,8
 Node,112,CORE_BOT_ZONENODE,Air,0
 Node,113,CORE_BOT_DOAS SUPPLY INLET,Air,2
 Node,114,CORE_BOT_OUTLET_ZONENODE,Air,1
 Node,115,CORE_MID_ZONENODE,Air,0
 Node,116,CORE_MID_DOAS SUPPLY INLET,Air,2
 Node,117,CORE_MID_OUTLET_ZONENODE,Air,1
 Node,118,CORE_TOP_ZONENODE,Air,0
 Node,119,CORE_TOP_DOAS SUPPLY INLET,Air,2
 Node,120,CORE_TOP_OUTLET_ZONENODE,Air,1
 Node,121,PERI1_TOP_ZONENODE,Air,0
 Node,122,PERI1_TOP_DOAS SUPPLY INLET,Air,2
 Node,123,PERI1_TOP_OUTLET_ZONENODE,Air,1
 Node,124,PERI2_TOP_ZONENODE,Air,0
 Node,125,PERI2_TOP_DOAS SUPPLY INLET,Air,2
 Node,126,PERI2_TOP_OUTLET_ZONENODE,Air,1
 Node,127,PERI3_TOP_ZONENODE,Air,0
 Node,128,PERI3_TOP_DOAS SUPPLY INLET,Air,2
 Node,129,PERI3_TOP_OUTLET_ZONENODE,Air,1
 Node,130,PERI1_BOT_ZONENODE,Air,0
 Node,131,PERI1_BOT_DOAS SUPPLY INLET,Air,2
 Node,132,PERI1_BOT_OUTLET_ZONENODE,Air,1
 Node,133,PERI2_BOT_ZONENODE,Air,0
 Node,134,PERI2_BOT_DOAS SUPPLY INLET,Air,2
 Node,135,PERI2_BOT_OUTLET_ZONENODE,Air,1
 Node,136,PERI3_BOT_ZONENODE,Air,0
 Node,137,PERI3_BOT_DOAS SUPPLY INLET,Air,2
 Node,138,PERI3_BOT_OUTLET_ZONENODE,Air,1
 Node,139,PERI4_BOT_ZONENODE,Air,0
 Node,140,PERI4_BOT_DOAS SUPPLY INLET,Air,2
 Node,141,PERI4_BOT_OUTLET_ZONENODE,Air,1
 Node,142,PERI1_MID_ZONENODE,Air,0
 Node,143,PERI1_MID_DOAS SUPPLY INLET,Air,2
 Node,144,PERI1_MID_OUTLET_ZONENODE,Air,1
 Node,145,PERI2_MID_ZONENODE,Air,0
 Node,146,PERI2_MID_DOAS SUPPLY INLET,Air,2
 Node,147,PERI2_MID_OUTLET_ZONENODE,Air,1
 Node,148,PERI3_MID_ZONENODE,Air,0
 Node,149,PERI3_MID_DOAS SUPPLY INLET,Air,2
 Node,150,PERI3_MID_OUTLET_ZONENODE,Air,1
 Node,151,PERI4_MID_ZONENODE,Air,0
 Node,152,PERI4_MID_DOAS SUPPLY INLET,Air,2
 Node,153,PERI4_MID_OUTLET_ZONENODE,Air,1
 Node,154,PERI4_TOP_ZONENODE,Air,0
 Node,155,PERI4_TOP_OUTLET_ZONENODE,Air,0
 Node,156,DOAS SUPPLY PATH INLET,Air,4
 Node,157,DOAS RETURN AIR OUTLET,Air,2
 Node,158,DOAS OUTDOOR AIR INLET,Air,2
 Node,159,CORE_BOT_DOAS ZONE EQUIP INLET,Air,1
 Node,160,CORE_MID_DOAS ZONE EQUIP INLET,Air,1
 Node,161,CORE_TOP_DOAS ZONE EQUIP INLET,Air,1
 Node,162,PERI1_BOT_DOAS ZONE EQUIP INLET,Air,1
 Node,163,PERI2_BOT_DOAS ZONE EQUIP INLET,Air,1
 Node,164,PERI3_BOT_DOAS ZONE EQUIP INLET,Air,1
 Node,165,PERI4_BOT_DOAS ZONE EQUIP INLET,Air,1
 Node,166,PERI1_MID_DOAS ZONE EQUIP INLET,Air,1
 Node,167,PERI2_MID_DOAS ZONE EQUIP INLET,Air,1
 Node,168,PERI3_MID_DOAS ZONE EQUIP INLET,Air,1
 Node,169,PERI4_MID_DOAS ZONE EQUIP INLET,Air,1
 Node,170,PERI1_TOP_DOAS ZONE EQUIP INLET,Air,1
 Node,171,PERI2_TOP_DOAS ZONE EQUIP INLET,Air,1
 Node,172,PERI3_TOP_DOAS ZONE EQUIP INLET,Air,1
 Node,173,DOAS RELIEF AIR OUTLET,Air,1
! ===============================================================
! Suspicious nodes have 0 references.  It is normal for some nodes, however.
! Listing nodes with 0 references (culled from previous list):
! <Suspicious Node>,<NodeNumber>,<Node Name>,<Node Fluid Type>,<# Times Node Referenced After Definition>
 Suspicious Node,112,CORE_BOT_ZONENODE,Air,0
 Suspicious Node,115,CORE_MID_ZONENODE,Air,0
 Suspicious Node,118,CORE_TOP_ZONENODE,Air,0
 Suspicious Node,121,PERI1_TOP_ZONENODE,Air,0
 Suspicious Node,124,PERI2_TOP_ZONENODE,Air,0
 Suspicious Node,127,PERI3_TOP_ZONENODE,Air,0
 Suspicious Node,130,PERI1_BOT_ZONENODE,Air,0
 Suspicious Node,133,PERI2_BOT_ZONENODE,Air,0
 Suspicious Node,136,PERI3_BOT_ZONENODE,Air,0
 Suspicious Node,139,PERI4_BOT_ZONENODE,Air,0
 Suspicious Node,142,PERI1_MID_ZONENODE,Air,0
 Suspicious Node,145,PERI2_MID_ZONENODE,Air,0
 Suspicious Node,148,PERI3_MID_ZONENODE,Air,0
 Suspicious Node,151,PERI4_MID_ZONENODE,Air,0
 Suspicious Node,154,PERI4_TOP_ZONENODE,Air,0
 Suspicious Node,155,PERI4_TOP_OUTLET_ZONENODE,Air,0
! ===============================================================
! <#Branch Lists>,<Number of Branch Lists>
 #Branch Lists,7
! <Branch List>,<Branch List Count>,<Branch List Name>,<Loop Name>,<Loop Type>,<Number of Branches>
! <Branch>,<Branch Count>,<Branch Name>,<Loop Name>,<Loop Type>,<Branch Inlet Node Name>,<Branch Outlet Node Name>
 Branch List,1,CHILLED WATER LOOP CHW SUPPLY SIDE BRANCHES,CHILLED WATER LOOP CHILLED WATER LOOP,Plant Supply,4
   Branch,1,CHILLED WATER LOOP CHW SUPPLY INLET BRANCH,CHILLED WATER LOOP CHILLED WATER LOOP,Plant Supply,CHILLED WATER LOOP CHW SUPPLY INLET,CHILLED WATER LOOP CHW PUMP OUTLET
   Branch,2,MAIN CHILLER CHW BRANCH,CHILLED WATER LOOP CHILLED WATER LOOP,Plant Supply,PURCHASED COOLING INLET NODE,PURCHASED COOLING OUTLET NODE
   Branch,3,CHILLED WATER LOOP CHW SUPPLY BYPASS BRANCH,CHILLED WATER LOOP CHILLED WATER LOOP,Plant Supply,CHILLED WATER LOOP CHW SUPPLY BYPASS INLET,CHILLED WATER LOOP CHW SUPPLY BYPASS OUTLET
   Branch,4,CHILLED WATER LOOP CHW SUPPLY OUTLET BRANCH,CHILLED WATER LOOP CHILLED WATER LOOP,Plant Supply,CHILLED WATER LOOP CHW SUPPLY OUTLET PIPE INLET,CHILLED WATER LOOP CHW SUPPLY OUTLET
 Branch List,2,CHILLED WATER LOOP CHW DEMAND SIDE BRANCHES,CHILLED WATER LOOP CHILLED WATER LOOP,Plant Demand,18
   Branch,1,CHILLED WATER LOOP CHW DEMAND INLET BRANCH,CHILLED WATER LOOP CHILLED WATER LOOP,Plant Demand,CHILLED WATER LOOP CHW DEMAND INLET,CHILLED WATER LOOP CHW DEMAND INLET PIPE OUTLET
   Branch,2,CORE_BOT_LOTEMP_BRANCH,CHILLED WATER LOOP CHILLED WATER LOOP,Plant Demand,CORE_BOT_LOTEMP_CHW_INLET,CORE_BOT_LOTEMP_CHW_OUTLET
   Branch,3,CORE_MID_LOTEMP_BRANCH,CHILLED WATER LOOP CHILLED WATER LOOP,Plant Demand,CORE_MID_LOTEMP_CHW_INLET,CORE_MID_LOTEMP_CHW_OUTLET
   Branch,4,CORE_TOP_LOTEMP_BRANCH,CHILLED WATER LOOP CHILLED WATER LOOP,Plant Demand,CORE_TOP_LOTEMP_CHW_INLET,CORE_TOP_LOTEMP_CHW_OUTLET
   Branch,5,PERI2_TOP_LOTEMP_BRANCH,CHILLED WATER LOOP CHILLED WATER LOOP,Plant Demand,PERI2_TOP_LOTEMP_CHW_INLET,PERI2_TOP_LOTEMP_CHW_OUTLET
   Branch,6,PERI3_TOP_LOTEMP_BRANCH,CHILLED WATER LOOP CHILLED WATER LOOP,Plant Demand,PERI3_TOP_LOTEMP_CHW_INLET,PERI3_TOP_LOTEMP_CHW_OUTLET
   Branch,7,PERI4_TOP_LOTEMP_BRANCH,CHILLED WATER LOOP CHILLED WATER LOOP,Plant Demand,PERI4_TOP_LOTEMP_CHW_INLET,PERI4_TOP_LOTEMP_CHW_OUTLET
   Branch,8,PERI1_MID_LOTEMP_BRANCH,CHILLED WATER LOOP CHILLED WATER LOOP,Plant Demand,PERI1_MID_LOTEMP_CHW_INLET,PERI1_MID_LOTEMP_CHW_OUTLET
   Branch,9,PERI2_MID_LOTEMP_BRANCH,CHILLED WATER LOOP CHILLED WATER LOOP,Plant Demand,PERI2_MID_LOTEMP_CHW_INLET,PERI2_MID_LOTEMP_CHW_OUTLET
   Branch,10,PERI3_MID_LOTEMP_BRANCH,CHILLED WATER LOOP CHILLED WATER LOOP,Plant Demand,PERI3_MID_LOTEMP_CHW_INLET,PERI3_MID_LOTEMP_CHW_OUTLET
   Branch,11,PERI4_MID_LOTEMP_BRANCH,CHILLED WATER LOOP CHILLED WATER LOOP,Plant Demand,PERI4_MID_LOTEMP_CHW_INLET,PERI4_MID_LOTEMP_CHW_OUTLET
   Branch,12,PERI1_BOT_LOTEMP_BRANCH,CHILLED WATER LOOP CHILLED WATER LOOP,Plant Demand,PERI1_BOT_LOTEMP_CHW_INLET,PERI1_BOT_LOTEMP_CHW_OUTLET
   Branch,13,PERI2_BOT_LOTEMP_BRANCH,CHILLED WATER LOOP CHILLED WATER LOOP,Plant Demand,PERI2_BOT_LOTEMP_CHW_INLET,PERI2_BOT_LOTEMP_CHW_OUTLET
   Branch,14,PERI3_BOT_LOTEMP_BRANCH,CHILLED WATER LOOP CHILLED WATER LOOP,Plant Demand,PERI3_BOT_LOTEMP_CHW_INLET,PERI3_BOT_LOTEMP_CHW_OUTLET
   Branch,15,PERI4_BOT_LOTEMP_BRANCH,CHILLED WATER LOOP CHILLED WATER LOOP,Plant Demand,PERI4_BOT_LOTEMP_CHW_INLET,PERI4_BOT_LOTEMP_CHW_OUTLET
   Branch,16,DOAS COOLING COIL CHW BRANCH,CHILLED WATER LOOP CHILLED WATER LOOP,Plant Demand,DOAS COOLING COIL CHW INLET,DOAS COOLING COIL CHW OUTLET
   Branch,17,CHILLED WATER LOOP CHW DEMAND BYPASS BRANCH,CHILLED WATER LOOP CHILLED WATER LOOP,Plant Demand,CHILLED WATER LOOP CHW DEMAND BYPASS INLET,CHILLED WATER LOOP CHW DEMAND BYPASS OUTLET
   Branch,18,CHILLED WATER LOOP CHW DEMAND OUTLET BRANCH,CHILLED WATER LOOP CHILLED WATER LOOP,Plant Demand,CHILLED WATER LOOP CHW DEMAND OUTLET PIPE INLET,CHILLED WATER LOOP CHW DEMAND OUTLET
 Branch List,3,HOT WATER LOOP HW SUPPLY SIDE BRANCHES,HOT WATER LOOP HOT WATER LOOP,Plant Supply,4
   Branch,1,HOT WATER LOOP HW SUPPLY INLET BRANCH,HOT WATER LOOP HOT WATER LOOP,Plant Supply,HOT WATER LOOP HW SUPPLY INLET,HOT WATER LOOP HW PUMP OUTLET
   Branch,2,MAIN BOILER HW BRANCH,HOT WATER LOOP HOT WATER LOOP,Plant Supply,PURCHASED HEAT INLET NODE,PURCHASED HEAT OUTLET NODE
   Branch,3,HOT WATER LOOP HW SUPPLY BYPASS BRANCH,HOT WATER LOOP HOT WATER LOOP,Plant Supply,HOT WATER LOOP HW SUPPLY BYPASS INLET,HOT WATER LOOP HW SUPPLY BYPASS OUTLET
   Branch,4,HOT WATER LOOP HW SUPPLY OUTLET BRANCH,HOT WATER LOOP HOT WATER LOOP,Plant Supply,HOT WATER LOOP HW SUPPLY OUTLET PIPE INLET,HOT WATER LOOP HW SUPPLY OUTLET
 Branch List,4,HOT WATER LOOP HW DEMAND SIDE BRANCHES,HOT WATER LOOP HOT WATER LOOP,Plant Demand,19
   Branch,1,HOT WATER LOOP HW DEMAND INLET BRANCH,HOT WATER LOOP HOT WATER LOOP,Plant Demand,HOT WATER LOOP HW DEMAND INLET,HOT WATER LOOP HW DEMAND INLET PIPE OUTLET
   Branch,2,CORE_TOP RADIANT BRANCH,HOT WATER LOOP HOT WATER LOOP,Plant Demand,CORE_TOP RADIANT WATER INLET NODE,CORE_TOP RADIANT WATER OUTLET NODE
   Branch,3,CORE_MID RADIANT BRANCH,HOT WATER LOOP HOT WATER LOOP,Plant Demand,CORE_MID RADIANT WATER INLET NODE,CORE_MID RADIANT WATER OUTLET NODE
   Branch,4,CORE_BOT RADIANT BRANCH,HOT WATER LOOP HOT WATER LOOP,Plant Demand,CORE_BOT RADIANT WATER INLET NODE,CORE_BOT RADIANT WATER OUTLET NODE
   Branch,5,PERI1_TOP RADIANT BRANCH,HOT WATER LOOP HOT WATER LOOP,Plant Demand,PERI1_TOP RADIANT WATER INLET NODE,PERI1_TOP RADIANT WATER OUTLET NODE
   Branch,6,PERI2_TOP RADIANT BRANCH,HOT WATER LOOP HOT WATER LOOP,Plant Demand,PERI2_TOP RADIANT WATER INLET NODE,PERI2_TOP RADIANT WATER OUTLET NODE
   Branch,7,PERI3_TOP RADIANT BRANCH,HOT WATER LOOP HOT WATER LOOP,Plant Demand,PERI3_TOP RADIANT WATER INLET NODE,PERI3_TOP RADIANT WATER OUTLET NODE
   Branch,8,PERI4_TOP RADIANT BRANCH,HOT WATER LOOP HOT WATER LOOP,Plant Demand,PERI4_TOP RADIANT WATER INLET NODE,PERI4_TOP RADIANT WATER OUTLET NODE
   Branch,9,PERI1_MID RADIANT BRANCH,HOT WATER LOOP HOT WATER LOOP,Plant Demand,PERI1_MID RADIANT WATER INLET NODE,PERI1_MID RADIANT WATER OUTLET NODE
   Branch,10,PERI2_MID RADIANT BRANCH,HOT WATER LOOP HOT WATER LOOP,Plant Demand,PERI2_MID RADIANT WATER INLET NODE,PERI2_MID RADIANT WATER OUTLET NODE
   Branch,11,PERI3_MID RADIANT BRANCH,HOT WATER LOOP HOT WATER LOOP,Plant Demand,PERI3_MID RADIANT WATER INLET NODE,PERI3_MID RADIANT WATER OUTLET NODE
   Branch,12,PERI4_MID RADIANT BRANCH,HOT WATER LOOP HOT WATER LOOP,Plant Demand,PERI4_MID RADIANT WATER INLET NODE,PERI4_MID RADIANT WATER OUTLET NODE
   Branch,13,PERI1_BOT RADIANT BRANCH,HOT WATER LOOP HOT WATER LOOP,Plant Demand,PERI1_BOT RADIANT WATER INLET NODE,PERI1_BOT RADIANT WATER OUTLET NODE
   Branch,14,PERI2_BOT RADIANT BRANCH,HOT WATER LOOP HOT WATER LOOP,Plant Demand,PERI2_BOT RADIANT WATER INLET NODE,PERI2_BOT RADIANT WATER OUTLET NODE
   Branch,15,PERI3_BOT RADIANT BRANCH,HOT WATER LOOP HOT WATER LOOP,Plant Demand,PERI3_BOT RADIANT WATER INLET NODE,PERI3_BOT RADIANT WATER OUTLET NODE
   Branch,16,PERI4_BOT RADIANT BRANCH,HOT WATER LOOP HOT WATER LOOP,Plant Demand,PERI4_BOT RADIANT WATER INLET NODE,PERI4_BOT RADIANT WATER OUTLET NODE
   Branch,17,DOAS HEATING COIL HW BRANCH,HOT WATER LOOP HOT WATER LOOP,Plant Demand,DOAS HEATING COIL HW INLET,DOAS HEATING COIL HW OUTLET
   Branch,18,HOT WATER LOOP HW DEMAND BYPASS BRANCH,HOT WATER LOOP HOT WATER LOOP,Plant Demand,HOT WATER LOOP HW DEMAND BYPASS INLET,HOT WATER LOOP HW DEMAND BYPASS OUTLET
   Branch,19,HOT WATER LOOP HW DEMAND OUTLET BRANCH,HOT WATER LOOP HOT WATER LOOP,Plant Demand,HOT WATER LOOP HW DEMAND OUTLET PIPE INLET,HOT WATER LOOP HW DEMAND OUTLET
 Branch List,5,DOAS BRANCHES,DOAS,Air,1
   Branch,1,DOAS MAIN BRANCH,DOAS,Air,DOAS AIR LOOP INLET,DOAS SUPPLY FAN OUTLET
 Branch List,6,CHILLED WATER LOOP CHW SUPPLY SIDE BRANCHES2,CHILLED WATER LOOP CHILLED WATER LOOP2,Plant Supply,4
   Branch,1,CHILLED WATER LOOP CHW SUPPLY INLET BRANCH2,CHILLED WATER LOOP CHILLED WATER LOOP2,Plant Supply,CHILLED WATER LOOP CHW SUPPLY INLET2,CHILLED WATER LOOP CHW PUMP OUTLET2
   Branch,2,MAIN CHILLER CHW BRANCH2,CHILLED WATER LOOP CHILLED WATER LOOP2,Plant Supply,PURCHASED COOLING INLET NODE2,PURCHASED COOLING OUTLET NODE2
   Branch,3,CHILLED WATER LOOP CHW SUPPLY BYPASS BRANCH2,CHILLED WATER LOOP CHILLED WATER LOOP2,Plant Supply,CHILLED WATER LOOP CHW SUPPLY BYPASS INLET2,CHILLED WATER LOOP CHW SUPPLY BYPASS OUTLET2
   Branch,4,CHILLED WATER LOOP CHW SUPPLY OUTLET BRANCH2,CHILLED WATER LOOP CHILLED WATER LOOP2,Plant Supply,CHILLED WATER LOOP CHW SUPPLY OUTLET PIPE INLET2,CHILLED WATER LOOP CHW SUPPLY OUTLET2
 Branch List,7,CHILLED WATER LOOP CHW DEMAND SIDE BRANCHES2,CHILLED WATER LOOP CHILLED WATER LOOP2,Plant Demand,4
   Branch,1,CHILLED WATER LOOP CHW DEMAND INLET BRANCH2,CHILLED WATER LOOP CHILLED WATER LOOP2,Plant Demand,CHILLED WATER LOOP CHW DEMAND INLET2,CHILLED WATER LOOP CHW DEMAND INLET PIPE OUTLET2
   Branch,2,PERI1_TOP_LOTEMP_BRANCH,CHILLED WATER LOOP CHILLED WATER LOOP2,Plant Demand,PERI1_TOP_LOTEMP_CHW_INLET,PERI1_TOP_LOTEMP_CHW_OUTLET
   Branch,3,CHILLED WATER LOOP CHW DEMAND BYPASS BRANCH2,CHILLED WATER LOOP CHILLED WATER LOOP2,Plant Demand,CHILLED WATER LOOP CHW DEMAND BYPASS INLET2,CHILLED WATER LOOP CHW DEMAND BYPASS OUTLET2
   Branch,4,CHILLED WATER LOOP CHW DEMAND OUTLET BRANCH2,CHILLED WATER LOOP CHILLED WATER LOOP2,Plant Demand,CHILLED WATER LOOP CHW DEMAND OUTLET PIPE INLET2,CHILLED WATER LOOP CHW DEMAND OUTLET2
! ===============================================================
! <#Supply Air Paths>,<Number of Supply Air Paths>
 #Supply Air Paths,1
! <Supply Air Path>,<Supply Air Path Count>,<Supply Air Path Name>,<AirLoopHVAC Name>
! <#Components on Supply Air Path>,<Number of Components>
! <Supply Air Path Component>,<Component Count>,<Component Type>,<Component Name>,<AirLoopHVAC Name>
! <#Outlet Nodes on Supply Air Path Component>,<Number of Nodes>
! <Supply Air Path Component Nodes>,<Node Count>,<Component Type>,<Component Name>,<Inlet Node Name>,<Outlet Node Name>,<AirLoopHVAC Name>
 Supply Air Path,1,DOAS SUPPLY PATH,DOAS
   #Components on Supply Air Path,1
   Supply Air Path Component,1,AIRLOOPHVAC:ZONESPLITTER,DOAS ZONE SPLITTER,DOAS
     #Outlet Nodes on Supply Air Path Component,14
     Supply Air Path Component Nodes,1,AIRLOOPHVAC:ZONESPLITTER,DOAS ZONE SPLITTER,DOAS SUPPLY PATH INLET,CORE_BOT_DOAS ZONE EQUIP INLET,DOAS
     Supply Air Path Component Nodes,2,AIRLOOPHVAC:ZONESPLITTER,DOAS ZONE SPLITTER,DOAS SUPPLY PATH INLET,CORE_MID_DOAS ZONE EQUIP INLET,DOAS
     Supply Air Path Component Nodes,3,AIRLOOPHVAC:ZONESPLITTER,DOAS ZONE SPLITTER,DOAS SUPPLY PATH INLET,CORE_TOP_DOAS ZONE EQUIP INLET,DOAS
     Supply Air Path Component Nodes,4,AIRLOOPHVAC:ZONESPLITTER,DOAS ZONE SPLITTER,DOAS SUPPLY PATH INLET,PERI1_BOT_DOAS ZONE EQUIP INLET,DOAS
     Supply Air Path Component Nodes,5,AIRLOOPHVAC:ZONESPLITTER,DOAS ZONE SPLITTER,DOAS SUPPLY PATH INLET,PERI2_BOT_DOAS ZONE EQUIP INLET,DOAS
     Supply Air Path Component Nodes,6,AIRLOOPHVAC:ZONESPLITTER,DOAS ZONE SPLITTER,DOAS SUPPLY PATH INLET,PERI3_BOT_DOAS ZONE EQUIP INLET,DOAS
     Supply Air Path Component Nodes,7,AIRLOOPHVAC:ZONESPLITTER,DOAS ZONE SPLITTER,DOAS SUPPLY PATH INLET,PERI4_BOT_DOAS ZONE EQUIP INLET,DOAS
     Supply Air Path Component Nodes,8,AIRLOOPHVAC:ZONESPLITTER,DOAS ZONE SPLITTER,DOAS SUPPLY PATH INLET,PERI1_MID_DOAS ZONE EQUIP INLET,DOAS
     Supply Air Path Component Nodes,9,AIRLOOPHVAC:ZONESPLITTER,DOAS ZONE SPLITTER,DOAS SUPPLY PATH INLET,PERI2_MID_DOAS ZONE EQUIP INLET,DOAS
     Supply Air Path Component Nodes,10,AIRLOOPHVAC:ZONESPLITTER,DOAS ZONE SPLITTER,DOAS SUPPLY PATH INLET,PERI3_MID_DOAS ZONE EQUIP INLET,DOAS
     Supply Air Path Component Nodes,11,AIRLOOPHVAC:ZONESPLITTER,DOAS ZONE SPLITTER,DOAS SUPPLY PATH INLET,PERI4_MID_DOAS ZONE EQUIP INLET,DOAS
     Supply Air Path Component Nodes,12,AIRLOOPHVAC:ZONESPLITTER,DOAS ZONE SPLITTER,DOAS SUPPLY PATH INLET,PERI1_TOP_DOAS ZONE EQUIP INLET,DOAS
     Supply Air Path Component Nodes,13,AIRLOOPHVAC:ZONESPLITTER,DOAS ZONE SPLITTER,DOAS SUPPLY PATH INLET,PERI2_TOP_DOAS ZONE EQUIP INLET,DOAS
     Supply Air Path Component Nodes,14,AIRLOOPHVAC:ZONESPLITTER,DOAS ZONE SPLITTER,DOAS SUPPLY PATH INLET,PERI3_TOP_DOAS ZONE EQUIP INLET,DOAS
! <#Nodes on Supply Air Path>,<Number of Nodes>
! <Supply Air Path Node>,<Node Type>,<Node Count>,<Node Name>,<AirLoopHVAC Name>
#Nodes on Supply Air Path,15
   Supply Air Path Node,Inlet Node,1,DOAS SUPPLY PATH INLET,DOAS
   Supply Air Path Node,Outlet Node,2,CORE_BOT_DOAS ZONE EQUIP INLET,DOAS
   Supply Air Path Node,Outlet Node,3,CORE_MID_DOAS ZONE EQUIP INLET,DOAS
   Supply Air Path Node,Outlet Node,4,CORE_TOP_DOAS ZONE EQUIP INLET,DOAS
   Supply Air Path Node,Outlet Node,5,PERI1_BOT_DOAS ZONE EQUIP INLET,DOAS
   Supply Air Path Node,Outlet Node,6,PERI2_BOT_DOAS ZONE EQUIP INLET,DOAS
   Supply Air Path Node,Outlet Node,7,PERI3_BOT_DOAS ZONE EQUIP INLET,DOAS
   Supply Air Path Node,Outlet Node,8,PERI4_BOT_DOAS ZONE EQUIP INLET,DOAS
   Supply Air Path Node,Outlet Node,9,PERI1_MID_DOAS ZONE EQUIP INLET,DOAS
   Supply Air Path Node,Outlet Node,10,PERI2_MID_DOAS ZONE EQUIP INLET,DOAS
   Supply Air Path Node,Outlet Node,11,PERI3_MID_DOAS ZONE EQUIP INLET,DOAS
   Supply Air Path Node,Outlet Node,12,PERI4_MID_DOAS ZONE EQUIP INLET,DOAS
   Supply Air Path Node,Outlet Node,13,PERI1_TOP_DOAS ZONE EQUIP INLET,DOAS
   Supply Air Path Node,Outlet Node,14,PERI2_TOP_DOAS ZONE EQUIP INLET,DOAS
   Supply Air Path Node,Outlet Node,15,PERI3_TOP_DOAS ZONE EQUIP INLET,DOAS
! ===============================================================
! <#Return Air Paths>,<Number of Return Air Paths>
 #Return Air Paths,1
! <Return Air Path>,<Return Air Path Count>,<Return Air Path Name>,<AirLoopHVAC Name>
! <#Components on Return Air Path>,<Number of Components>
! <Return Air Path Component>,<Component Count>,<Component Type>,<Component Name>,<AirLoopHVAC Name>
! <#Inlet Nodes on Return Air Path Component>,<Number of Nodes>
! <Return Air Path Component Nodes>,<Node Count>,<Component Type>,<Component Name>,<Inlet Node Name>,<Outlet Node Name>,<AirLoopHVAC Name>
 Return Air Path,1,DOAS RETURN PATH,DOAS
   #Components on Return Air Path,1
   Return Air Path Component,1,AIRLOOPHVAC:ZONEMIXER,DOAS ZONE MIXER,DOAS
     #Inlet Nodes on Return Air Path Component,14
     Return Air Path Component Nodes,1,AIRLOOPHVAC:ZONEMIXER,DOAS ZONE MIXER,CORE_BOT_OUTLET_ZONENODE,DOAS RETURN AIR OUTLET,DOAS
     Return Air Path Component Nodes,2,AIRLOOPHVAC:ZONEMIXER,DOAS ZONE MIXER,CORE_MID_OUTLET_ZONENODE,DOAS RETURN AIR OUTLET,DOAS
     Return Air Path Component Nodes,3,AIRLOOPHVAC:ZONEMIXER,DOAS ZONE MIXER,CORE_TOP_OUTLET_ZONENODE,DOAS RETURN AIR OUTLET,DOAS
     Return Air Path Component Nodes,4,AIRLOOPHVAC:ZONEMIXER,DOAS ZONE MIXER,PERI1_BOT_OUTLET_ZONENODE,DOAS RETURN AIR OUTLET,DOAS
     Return Air Path Component Nodes,5,AIRLOOPHVAC:ZONEMIXER,DOAS ZONE MIXER,PERI2_BOT_OUTLET_ZONENODE,DOAS RETURN AIR OUTLET,DOAS
     Return Air Path Component Nodes,6,AIRLOOPHVAC:ZONEMIXER,DOAS ZONE MIXER,PERI3_BOT_OUTLET_ZONENODE,DOAS RETURN AIR OUTLET,DOAS
     Return Air Path Component Nodes,7,AIRLOOPHVAC:ZONEMIXER,DOAS ZONE MIXER,PERI4_BOT_OUTLET_ZONENODE,DOAS RETURN AIR OUTLET,DOAS
     Return Air Path Component Nodes,8,AIRLOOPHVAC:ZONEMIXER,DOAS ZONE MIXER,PERI1_MID_OUTLET_ZONENODE,DOAS RETURN AIR OUTLET,DOAS
     Return Air Path Component Nodes,9,AIRLOOPHVAC:ZONEMIXER,DOAS ZONE MIXER,PERI2_MID_OUTLET_ZONENODE,DOAS RETURN AIR OUTLET,DOAS
     Return Air Path Component Nodes,10,AIRLOOPHVAC:ZONEMIXER,DOAS ZONE MIXER,PERI3_MID_OUTLET_ZONENODE,DOAS RETURN AIR OUTLET,DOAS
     Return Air Path Component Nodes,11,AIRLOOPHVAC:ZONEMIXER,DOAS ZONE MIXER,PERI4_MID_OUTLET_ZONENODE,DOAS RETURN AIR OUTLET,DOAS
     Return Air Path Component Nodes,12,AIRLOOPHVAC:ZONEMIXER,DOAS ZONE MIXER,PERI1_TOP_OUTLET_ZONENODE,DOAS RETURN AIR OUTLET,DOAS
     Return Air Path Component Nodes,13,AIRLOOPHVAC:ZONEMIXER,DOAS ZONE MIXER,PERI2_TOP_OUTLET_ZONENODE,DOAS RETURN AIR OUTLET,DOAS
     Return Air Path Component Nodes,14,AIRLOOPHVAC:ZONEMIXER,DOAS ZONE MIXER,PERI3_TOP_OUTLET_ZONENODE,DOAS RETURN AIR OUTLET,DOAS
! <#Nodes on Return Air Path>,<Number of Nodes>
! <Return Air Path Node>,<Node Type>,<Node Count>,<Node Name>,<AirLoopHVAC Name>
   #Nodes on Return Air Path,15
   Return Air Path Node,Outlet Node,1,DOAS RETURN AIR OUTLET,DOAS
   Return Air Path Node,Inlet Node,2,CORE_BOT_OUTLET_ZONENODE,DOAS
   Return Air Path Node,Inlet Node,3,CORE_MID_OUTLET_ZONENODE,DOAS
   Return Air Path Node,Inlet Node,4,CORE_TOP_OUTLET_ZONENODE,DOAS
   Return Air Path Node,Inlet Node,5,PERI1_BOT_OUTLET_ZONENODE,DOAS
   Return Air Path Node,Inlet Node,6,PERI2_BOT_OUTLET_ZONENODE,DOAS
   Return Air Path Node,Inlet Node,7,PERI3_BOT_OUTLET_ZONENODE,DOAS
   Return Air Path Node,Inlet Node,8,PERI4_BOT_OUTLET_ZONENODE,DOAS
   Return Air Path Node,Inlet Node,9,PERI1_MID_OUTLET_ZONENODE,DOAS
   Return Air Path Node,Inlet Node,10,PERI2_MID_OUTLET_ZONENODE,DOAS
   Return Air Path Node,Inlet Node,11,PERI3_MID_OUTLET_ZONENODE,DOAS
   Return Air Path Node,Inlet Node,12,PERI4_MID_OUTLET_ZONENODE,DOAS
   Return Air Path Node,Inlet Node,13,PERI1_TOP_OUTLET_ZONENODE,DOAS
   Return Air Path Node,Inlet Node,14,PERI2_TOP_OUTLET_ZONENODE,DOAS
   Return Air Path Node,Inlet Node,15,PERI3_TOP_OUTLET_ZONENODE,DOAS
! ===============================================================
! #Outdoor Air Nodes,<Number of Outdoor Air Nodes>
 #Outdoor Air Nodes,1
! <Outdoor Air Node>,<NodeNumber>,<Node Name>
 Outdoor Air Node,158,DOAS OUTDOOR AIR INLET
! ===============================================================
! <#Component Sets>,<Number of Component Sets>
 #Component Sets,72
! <Component Set>,<Component Set Count>,<Parent Object Type>,<Parent Object Name>,<Component Type>,<Component Name>,<Inlet Node ID>,<Outlet Node ID>,<Description>
 Component Set,1,BRANCH,CHILLED WATER LOOP CHW SUPPLY BYPASS BRANCH,PIPE:ADIABATIC,CHILLED WATER LOOP CHW SUPPLY SIDE BYPASS PIPE,CHILLED WATER LOOP CHW SUPPLY BYPASS INLET,CHILLED WATER LOOP CHW SUPPLY BYPASS OUTLET,Pipe Nodes
 Component Set,2,BRANCH,CHILLED WATER LOOP CHW SUPPLY BYPASS BRANCH2,PIPE:ADIABATIC,CHILLED WATER LOOP CHW SUPPLY SIDE BYPASS PIPE2,CHILLED WATER LOOP CHW SUPPLY BYPASS INLET2,CHILLED WATER LOOP CHW SUPPLY BYPASS OUTLET2,Pipe Nodes
 Component Set,3,BRANCH,CHILLED WATER LOOP CHW SUPPLY INLET BRANCH,PUMP:CONSTANTSPEED,CHILLED WATER LOOP CHW SUPPLY PUMP,CHILLED WATER LOOP CHW SUPPLY INLET,CHILLED WATER LOOP CHW PUMP OUTLET,Water Nodes
 Component Set,4,BRANCH,CHILLED WATER LOOP CHW SUPPLY INLET BRANCH2,PUMP:CONSTANTSPEED,CHILLED WATER LOOP CHW SUPPLY PUMP2,CHILLED WATER LOOP CHW SUPPLY INLET2,CHILLED WATER LOOP CHW PUMP OUTLET2,Water Nodes
 Component Set,5,BRANCH,CHILLED WATER LOOP CHW SUPPLY OUTLET BRANCH,PIPE:ADIABATIC,CHILLED WATER LOOP CHW SUPPLY OUTLET PIPE,CHILLED WATER LOOP CHW SUPPLY OUTLET PIPE INLET,CHILLED WATER LOOP CHW SUPPLY OUTLET,Pipe Nodes
 Component Set,6,BRANCH,CHILLED WATER LOOP CHW SUPPLY OUTLET BRANCH2,PIPE:ADIABATIC,CHILLED WATER LOOP CHW SUPPLY OUTLET PIPE2,CHILLED WATER LOOP CHW SUPPLY OUTLET PIPE INLET2,CHILLED WATER LOOP CHW SUPPLY OUTLET2,Pipe Nodes
 Component Set,7,BRANCH,CHILLED WATER LOOP CHW DEMAND INLET BRANCH,PIPE:ADIABATIC,CHILLED WATER LOOP CHW DEMAND INLET PIPE,CHILLED WATER LOOP CHW DEMAND INLET,CHILLED WATER LOOP CHW DEMAND INLET PIPE OUTLET,Pipe Nodes
 Component Set,8,BRANCH,CHILLED WATER LOOP CHW DEMAND INLET BRANCH2,PIPE:ADIABATIC,CHILLED WATER LOOP CHW DEMAND INLET PIPE2,CHILLED WATER LOOP CHW DEMAND INLET2,CHILLED WATER LOOP CHW DEMAND INLET PIPE OUTLET2,Pipe Nodes
 Component Set,9,BRANCH,CHILLED WATER LOOP CHW DEMAND BYPASS BRANCH,PIPE:ADIABATIC,CHILLED WATER LOOP CHW DEMAND SIDE BYPASS PIPE,CHILLED WATER LOOP CHW DEMAND BYPASS INLET,CHILLED WATER LOOP CHW DEMAND BYPASS OUTLET,Pipe Nodes
 Component Set,10,BRANCH,CHILLED WATER LOOP CHW DEMAND BYPASS BRANCH2,PIPE:ADIABATIC,CHILLED WATER LOOP CHW DEMAND SIDE BYPASS PIPE2,CHILLED WATER LOOP CHW DEMAND BYPASS INLET2,CHILLED WATER LOOP CHW DEMAND BYPASS OUTLET2,Pipe Nodes
 Component Set,11,BRANCH,CHILLED WATER LOOP CHW DEMAND OUTLET BRANCH,PIPE:ADIABATIC,CHILLED WATER LOOP CHW DEMAND OUTLET PIPE,CHILLED WATER LOOP CHW DEMAND OUTLET PIPE INLET,CHILLED WATER LOOP CHW DEMAND OUTLET,Pipe Nodes
 Component Set,12,BRANCH,CHILLED WATER LOOP CHW DEMAND OUTLET BRANCH2,PIPE:ADIABATIC,CHILLED WATER LOOP CHW DEMAND OUTLET PIPE2,CHILLED WATER LOOP CHW DEMAND OUTLET PIPE INLET2,CHILLED WATER LOOP CHW DEMAND OUTLET2,Pipe Nodes
 Component Set,13,BRANCH,CORE_BOT_LOTEMP_BRANCH,ZONEHVAC:LOWTEMPERATURERADIANT:CONSTANTFLOW,CORE_BOT_LOTEMP,CORE_BOT_LOTEMP_CHW_INLET,CORE_BOT_LOTEMP_CHW_OUTLET,Chilled Water Nodes
 Component Set,14,BRANCH,CORE_MID_LOTEMP_BRANCH,ZONEHVAC:LOWTEMPERATURERADIANT:CONSTANTFLOW,CORE_MID_LOTEMP,CORE_MID_LOTEMP_CHW_INLET,CORE_MID_LOTEMP_CHW_OUTLET,Chilled Water Nodes
 Component Set,15,BRANCH,CORE_TOP_LOTEMP_BRANCH,ZONEHVAC:LOWTEMPERATURERADIANT:CONSTANTFLOW,CORE_TOP_LOTEMP,CORE_TOP_LOTEMP_CHW_INLET,CORE_TOP_LOTEMP_CHW_OUTLET,Chilled Water Nodes
 Component Set,16,BRANCH,PERI1_TOP_LOTEMP_BRANCH,ZONEHVAC:LOWTEMPERATURERADIANT:CONSTANTFLOW,PERI1_TOP_LOTEMP,PERI1_TOP_LOTEMP_CHW_INLET,PERI1_TOP_LOTEMP_CHW_OUTLET,Chilled Water Nodes
 Component Set,17,BRANCH,PERI2_TOP_LOTEMP_BRANCH,ZONEHVAC:LOWTEMPERATURERADIANT:CONSTANTFLOW,PERI2_TOP_LOTEMP,PERI2_TOP_LOTEMP_CHW_INLET,PERI2_TOP_LOTEMP_CHW_OUTLET,Chilled Water Nodes
 Component Set,18,BRANCH,PERI3_TOP_LOTEMP_BRANCH,ZONEHVAC:LOWTEMPERATURERADIANT:CONSTANTFLOW,PERI3_TOP_LOTEMP,PERI3_TOP_LOTEMP_CHW_INLET,PERI3_TOP_LOTEMP_CHW_OUTLET,Chilled Water Nodes
 Component Set,19,BRANCH,PERI4_TOP_LOTEMP_BRANCH,ZONEHVAC:LOWTEMPERATURERADIANT:CONSTANTFLOW,PERI4_TOP_LOTEMP,PERI4_TOP_LOTEMP_CHW_INLET,PERI4_TOP_LOTEMP_CHW_OUTLET,Chilled Water Nodes
 Component Set,20,BRANCH,PERI1_MID_LOTEMP_BRANCH,ZONEHVAC:LOWTEMPERATURERADIANT:CONSTANTFLOW,PERI1_MID_LOTEMP,PERI1_MID_LOTEMP_CHW_INLET,PERI1_MID_LOTEMP_CHW_OUTLET,Chilled Water Nodes
 Component Set,21,BRANCH,PERI2_MID_LOTEMP_BRANCH,ZONEHVAC:LOWTEMPERATURERADIANT:CONSTANTFLOW,PERI2_MID_LOTEMP,PERI2_MID_LOTEMP_CHW_INLET,PERI2_MID_LOTEMP_CHW_OUTLET,Chilled Water Nodes
 Component Set,22,BRANCH,PERI3_MID_LOTEMP_BRANCH,ZONEHVAC:LOWTEMPERATURERADIANT:CONSTANTFLOW,PERI3_MID_LOTEMP,PERI3_MID_LOTEMP_CHW_INLET,PERI3_MID_LOTEMP_CHW_OUTLET,Chilled Water Nodes
 Component Set,23,BRANCH,PERI4_MID_LOTEMP_BRANCH,ZONEHVAC:LOWTEMPERATURERADIANT:CONSTANTFLOW,PERI4_MID_LOTEMP,PERI4_MID_LOTEMP_CHW_INLET,PERI4_MID_LOTEMP_CHW_OUTLET,Chilled Water Nodes
 Component Set,24,BRANCH,PERI2_BOT_LOTEMP_BRANCH,ZONEHVAC:LOWTEMPERATURERADIANT:CONSTANTFLOW,PERI2_BOT_LOTEMP,PERI2_BOT_LOTEMP_CHW_INLET,PERI2_BOT_LOTEMP_CHW_OUTLET,Chilled Water Nodes
 Component Set,25,BRANCH,PERI1_BOT_LOTEMP_BRANCH,ZONEHVAC:LOWTEMPERATURERADIANT:CONSTANTFLOW,PERI1_BOT_LOTEMP,PERI1_BOT_LOTEMP_CHW_INLET,PERI1_BOT_LOTEMP_CHW_OUTLET,Chilled Water Nodes
 Component Set,26,BRANCH,PERI3_BOT_LOTEMP_BRANCH,ZONEHVAC:LOWTEMPERATURERADIANT:CONSTANTFLOW,PERI3_BOT_LOTEMP,PERI3_BOT_LOTEMP_CHW_INLET,PERI3_BOT_LOTEMP_CHW_OUTLET,Chilled Water Nodes
 Component Set,27,BRANCH,PERI4_BOT_LOTEMP_BRANCH,ZONEHVAC:LOWTEMPERATURERADIANT:CONSTANTFLOW,PERI4_BOT_LOTEMP,PERI4_BOT_LOTEMP_CHW_INLET,PERI4_BOT_LOTEMP_CHW_OUTLET,Chilled Water Nodes
 Component Set,28,BRANCH,MAIN CHILLER CHW BRANCH,DISTRICTCOOLING,PURCHASEDCOOLING,PURCHASED COOLING INLET NODE,PURCHASED COOLING OUTLET NODE,Chilled Water Nodes
 Component Set,29,BRANCH,MAIN CHILLER CHW BRANCH2,DISTRICTCOOLING,PURCHASEDCOOLING2,PURCHASED COOLING INLET NODE2,PURCHASED COOLING OUTLET NODE2,Chilled Water Nodes
 Component Set,30,BRANCH,MAIN BOILER HW BRANCH,DISTRICTHEATING,PURCHASED HEATING,PURCHASED HEAT INLET NODE,PURCHASED HEAT OUTLET NODE,Hot Water Nodes
 Component Set,31,BRANCH,HOT WATER LOOP HW SUPPLY BYPASS BRANCH,PIPE:ADIABATIC,HOT WATER LOOP HW SUPPLY SIDE BYPASS PIPE,HOT WATER LOOP HW SUPPLY BYPASS INLET,HOT WATER LOOP HW SUPPLY BYPASS OUTLET,Pipe Nodes
 Component Set,32,BRANCH,HOT WATER LOOP HW SUPPLY INLET BRANCH,PUMP:CONSTANTSPEED,HOT WATER LOOP HW SUPPLY PUMP,HOT WATER LOOP HW SUPPLY INLET,HOT WATER LOOP HW PUMP OUTLET,Water Nodes
 Component Set,33,BRANCH,HOT WATER LOOP HW SUPPLY OUTLET BRANCH,PIPE:ADIABATIC,HOT WATER LOOP HW SUPPLY OUTLET PIPE,HOT WATER LOOP HW SUPPLY OUTLET PIPE INLET,HOT WATER LOOP HW SUPPLY OUTLET,Pipe Nodes
 Component Set,34,BRANCH,HOT WATER LOOP HW DEMAND INLET BRANCH,PIPE:ADIABATIC,HOT WATER LOOP HW DEMAND INLET PIPE,HOT WATER LOOP HW DEMAND INLET,HOT WATER LOOP HW DEMAND INLET PIPE OUTLET,Pipe Nodes
 Component Set,35,BRANCH,HOT WATER LOOP HW DEMAND BYPASS BRANCH,PIPE:ADIABATIC,HOT WATER LOOP HW DEMAND SIDE BYPASS PIPE,HOT WATER LOOP HW DEMAND BYPASS INLET,HOT WATER LOOP HW DEMAND BYPASS OUTLET,Pipe Nodes
 Component Set,36,BRANCH,HOT WATER LOOP HW DEMAND OUTLET BRANCH,PIPE:ADIABATIC,HOT WATER LOOP HW DEMAND OUTLET PIPE,HOT WATER LOOP HW DEMAND OUTLET PIPE INLET,HOT WATER LOOP HW DEMAND OUTLET,Pipe Nodes
 Component Set,37,BRANCH,CORE_TOP RADIANT BRANCH,ZONEHVAC:LOWTEMPERATURERADIANT:CONSTANTFLOW,CORE_TOP_LOTEMP,CORE_TOP RADIANT WATER INLET NODE,CORE_TOP RADIANT WATER OUTLET NODE,Hot Water Nodes
 Component Set,38,BRANCH,CORE_MID RADIANT BRANCH,ZONEHVAC:LOWTEMPERATURERADIANT:CONSTANTFLOW,CORE_MID_LOTEMP,CORE_MID RADIANT WATER INLET NODE,CORE_MID RADIANT WATER OUTLET NODE,Hot Water Nodes
 Component Set,39,BRANCH,CORE_BOT RADIANT BRANCH,ZONEHVAC:LOWTEMPERATURERADIANT:CONSTANTFLOW,CORE_BOT_LOTEMP,CORE_BOT RADIANT WATER INLET NODE,CORE_BOT RADIANT WATER OUTLET NODE,Hot Water Nodes
 Component Set,40,BRANCH,PERI1_TOP RADIANT BRANCH,ZONEHVAC:LOWTEMPERATURERADIANT:CONSTANTFLOW,PERI1_TOP_LOTEMP,PERI1_TOP RADIANT WATER INLET NODE,PERI1_TOP RADIANT WATER OUTLET NODE,Hot Water Nodes
 Component Set,41,BRANCH,PERI2_TOP RADIANT BRANCH,ZONEHVAC:LOWTEMPERATURERADIANT:CONSTANTFLOW,PERI2_TOP_LOTEMP,PERI2_TOP RADIANT WATER INLET NODE,PERI2_TOP RADIANT WATER OUTLET NODE,Hot Water Nodes
 Component Set,42,BRANCH,PERI3_TOP RADIANT BRANCH,ZONEHVAC:LOWTEMPERATURERADIANT:CONSTANTFLOW,PERI3_TOP_LOTEMP,PERI3_TOP RADIANT WATER INLET NODE,PERI3_TOP RADIANT WATER OUTLET NODE,Hot Water Nodes
 Component Set,43,BRANCH,PERI4_TOP RADIANT BRANCH,ZONEHVAC:LOWTEMPERATURERADIANT:CONSTANTFLOW,PERI4_TOP_LOTEMP,PERI4_TOP RADIANT WATER INLET NODE,PERI4_TOP RADIANT WATER OUTLET NODE,Hot Water Nodes
 Component Set,44,BRANCH,PERI1_MID RADIANT BRANCH,ZONEHVAC:LOWTEMPERATURERADIANT:CONSTANTFLOW,PERI1_MID_LOTEMP,PERI1_MID RADIANT WATER INLET NODE,PERI1_MID RADIANT WATER OUTLET NODE,Hot Water Nodes
 Component Set,45,BRANCH,PERI2_MID RADIANT BRANCH,ZONEHVAC:LOWTEMPERATURERADIANT:CONSTANTFLOW,PERI2_MID_LOTEMP,PERI2_MID RADIANT WATER INLET NODE,PERI2_MID RADIANT WATER OUTLET NODE,Hot Water Nodes
 Component Set,46,BRANCH,PERI3_MID RADIANT BRANCH,ZONEHVAC:LOWTEMPERATURERADIANT:CONSTANTFLOW,PERI3_MID_LOTEMP,PERI3_MID RADIANT WATER INLET NODE,PERI3_MID RADIANT WATER OUTLET NODE,Hot Water Nodes
 Component Set,47,BRANCH,PERI4_MID RADIANT BRANCH,ZONEHVAC:LOWTEMPERATURERADIANT:CONSTANTFLOW,PERI4_MID_LOTEMP,PERI4_MID RADIANT WATER INLET NODE,PERI4_MID RADIANT WATER OUTLET NODE,Hot Water Nodes
 Component Set,48,BRANCH,PERI1_BOT RADIANT BRANCH,ZONEHVAC:LOWTEMPERATURERADIANT:CONSTANTFLOW,PERI1_BOT_LOTEMP,PERI1_BOT RADIANT WATER INLET NODE,PERI1_BOT RADIANT WATER OUTLET NODE,Hot Water Nodes
 Component Set,49,BRANCH,PERI2_BOT RADIANT BRANCH,ZONEHVAC:LOWTEMPERATURERADIANT:CONSTANTFLOW,PERI2_BOT_LOTEMP,PERI2_BOT RADIANT WATER INLET NODE,PERI2_BOT RADIANT WATER OUTLET NODE,Hot Water Nodes
 Component Set,50,BRANCH,PERI3_BOT RADIANT BRANCH,ZONEHVAC:LOWTEMPERATURERADIANT:CONSTANTFLOW,PERI3_BOT_LOTEMP,PERI3_BOT RADIANT WATER INLET NODE,PERI3_BOT RADIANT WATER OUTLET NODE,Hot Water Nodes
 Component Set,51,BRANCH,PERI4_BOT RADIANT BRANCH,ZONEHVAC:LOWTEMPERATURERADIANT:CONSTANTFLOW,PERI4_BOT_LOTEMP,PERI4_BOT RADIANT WATER INLET NODE,PERI4_BOT RADIANT WATER OUTLET NODE,Hot Water Nodes
 Component Set,52,BRANCH,DOAS COOLING COIL CHW BRANCH,COIL:COOLING:WATER,DOAS COOLING COIL,DOAS COOLING COIL CHW INLET,DOAS COOLING COIL CHW OUTLET,Water Nodes
 Component Set,53,BRANCH,DOAS HEATING COIL HW BRANCH,COIL:HEATING:WATER,DOAS HEATING COIL,DOAS HEATING COIL HW INLET,DOAS HEATING COIL HW OUTLET,Water Nodes
 Component Set,54,BRANCH,DOAS MAIN BRANCH,AIRLOOPHVAC:OUTDOORAIRSYSTEM,DOAS OA SYSTEM,DOAS AIR LOOP INLET,DOAS MIXED AIR OUTLET,Air Nodes
 Component Set,55,BRANCH,DOAS MAIN BRANCH,COIL:COOLING:WATER,DOAS COOLING COIL,DOAS MIXED AIR OUTLET,DOAS COOLING COIL OUTLET,Air Nodes
 Component Set,56,BRANCH,DOAS MAIN BRANCH,COIL:HEATING:WATER,DOAS HEATING COIL,DOAS COOLING COIL OUTLET,DOAS HEATING COIL OUTLET,Air Nodes
 Component Set,57,BRANCH,DOAS MAIN BRANCH,FAN:VARIABLEVOLUME,DOAS SUPPLY FAN,DOAS HEATING COIL OUTLET,DOAS SUPPLY FAN OUTLET,Air Nodes
 Component Set,58,ZONEHVAC:AIRDISTRIBUTIONUNIT,CORE_BOT DOAS ATU,AIRTERMINAL:SINGLEDUCT:VAV:NOREHEAT,CORE_BOT_DOAS_AIRTERMINAL,CORE_BOT_DOAS ZONE EQUIP INLET,CORE_BOT_DOAS SUPPLY INLET,Air Nodes
 Component Set,59,ZONEHVAC:AIRDISTRIBUTIONUNIT,CORE_MID DOAS ATU,AIRTERMINAL:SINGLEDUCT:VAV:NOREHEAT,CORE_MID_DOAS_AIRTERMINAL,CORE_MID_DOAS ZONE EQUIP INLET,CORE_MID_DOAS SUPPLY INLET,Air Nodes
 Component Set,60,ZONEHVAC:AIRDISTRIBUTIONUNIT,CORE_TOP DOAS ATU,AIRTERMINAL:SINGLEDUCT:VAV:NOREHEAT,CORE_TOP_DOAS_AIRTERMINAL,CORE_TOP_DOAS ZONE EQUIP INLET,CORE_TOP_DOAS SUPPLY INLET,Air Nodes
 Component Set,61,ZONEHVAC:AIRDISTRIBUTIONUNIT,PERI1_TOP DOAS ATU,AIRTERMINAL:SINGLEDUCT:VAV:NOREHEAT,PERI1_TOP_DOAS_AIRTERMINAL,PERI1_TOP_DOAS ZONE EQUIP INLET,PERI1_TOP_DOAS SUPPLY INLET,Air Nodes
 Component Set,62,ZONEHVAC:AIRDISTRIBUTIONUNIT,PERI2_TOP DOAS ATU,AIRTERMINAL:SINGLEDUCT:VAV:NOREHEAT,PERI2_TOP_DOAS_AIRTERMINAL,PERI2_TOP_DOAS ZONE EQUIP INLET,PERI2_TOP_DOAS SUPPLY INLET,Air Nodes
 Component Set,63,ZONEHVAC:AIRDISTRIBUTIONUNIT,PERI3_TOP DOAS ATU,AIRTERMINAL:SINGLEDUCT:VAV:NOREHEAT,PERI3_TOP_DOAS_AIRTERMINAL,PERI3_TOP_DOAS ZONE EQUIP INLET,PERI3_TOP_DOAS SUPPLY INLET,Air Nodes
 Component Set,64,ZONEHVAC:AIRDISTRIBUTIONUNIT,PERI1_MID DOAS ATU,AIRTERMINAL:SINGLEDUCT:VAV:NOREHEAT,PERI1_MID_DOAS_AIRTERMINAL,PERI1_MID_DOAS ZONE EQUIP INLET,PERI1_MID_DOAS SUPPLY INLET,Air Nodes
 Component Set,65,ZONEHVAC:AIRDISTRIBUTIONUNIT,PERI2_MID DOAS ATU,AIRTERMINAL:SINGLEDUCT:VAV:NOREHEAT,PERI2_MID_DOAS_AIRTERMINAL,PERI2_MID_DOAS ZONE EQUIP INLET,PERI2_MID_DOAS SUPPLY INLET,Air Nodes
 Component Set,66,ZONEHVAC:AIRDISTRIBUTIONUNIT,PERI3_MID DOAS ATU,AIRTERMINAL:SINGLEDUCT:VAV:NOREHEAT,PERI3_MID_DOAS_AIRTERMINAL,PERI3_MID_DOAS ZONE EQUIP INLET,PERI3_MID_DOAS SUPPLY INLET,Air Nodes
 Component Set,67,ZONEHVAC:AIRDISTRIBUTIONUNIT,PERI4_MID DOAS ATU,AIRTERMINAL:SINGLEDUCT:VAV:NOREHEAT,PERI4_MID_DOAS_AIRTERMINAL,PERI4_MID_DOAS ZONE EQUIP INLET,PERI4_MID_DOAS SUPPLY INLET,Air Nodes
 Component Set,68,ZONEHVAC:AIRDISTRIBUTIONUNIT,PERI1_BOT DOAS ATU,AIRTERMINAL:SINGLEDUCT:VAV:NOREHEAT,PERI1_BOT_DOAS_AIRTERMINAL,PERI1_BOT_DOAS ZONE EQUIP INLET,PERI1_BOT_DOAS SUPPLY INLET,Air Nodes
 Component Set,69,ZONEHVAC:AIRDISTRIBUTIONUNIT,PERI2_BOT DOAS ATU,AIRTERMINAL:SINGLEDUCT:VAV:NOREHEAT,PERI2_BOT_DOAS_AIRTERMINAL,PERI2_BOT_DOAS ZONE EQUIP INLET,PERI2_BOT_DOAS SUPPLY INLET,Air Nodes
 Component Set,70,ZONEHVAC:AIRDISTRIBUTIONUNIT,PERI3_BOT DOAS ATU,AIRTERMINAL:SINGLEDUCT:VAV:NOREHEAT,PERI3_BOT_DOAS_AIRTERMINAL,PERI3_BOT_DOAS ZONE EQUIP INLET,PERI3_BOT_DOAS SUPPLY INLET,Air Nodes
 Component Set,71,ZONEHVAC:AIRDISTRIBUTIONUNIT,PERI4_BOT DOAS ATU,AIRTERMINAL:SINGLEDUCT:VAV:NOREHEAT,PERI4_BOT_DOAS_AIRTERMINAL,PERI4_BOT_DOAS ZONE EQUIP INLET,PERI4_BOT_DOAS SUPPLY INLET,Air Nodes
 Component Set,72,AIRLOOPHVAC:OUTDOORAIRSYSTEM,DOAS OA SYSTEM,OUTDOORAIR:MIXER,DOAS OA MIXING BOX,DOAS OUTDOOR AIR INLET,DOAS MIXED AIR OUTLET,Air Nodes
! ===============================================================
! <# Plant Loops>,<Number of Plant Loops>
 #Plant Loops,3
! <Plant Loop>,<Plant Loop Name>,<Loop Type>,<Inlet Node Name>,<Outlet Node Name>,<Branch List>,<Connector List>
! <Plant Loop Connector>,<Connector Type>,<Connector Name>,<Loop Name>,<Loop Type>,<Number of Inlets/Outlets>
! <Plant Loop Connector Branches>,<Connector Node Count>,<Connector Type>,<Connector Name>,<Inlet Branch>,<Outlet Branch>,<Loop Name>,<Loop Type>
! <Plant Loop Connector Nodes>,<Connector Node Count>,<Connector Type>,<Connector Name>,<Inlet Node>,<Outlet Node>,<Loop Name>,<Loop Type>
! <Plant Loop Supply Connection>,<Plant Loop Name>,<Supply Side Outlet Node Name>,<Demand Side Inlet Node Name>
! <Plant Loop Return Connection>,<Plant Loop Name>,<Demand Side Outlet Node Name>,<Supply Side Inlet Node Name>
 Plant Loop,CHILLED WATER LOOP CHILLED WATER LOOP,Demand,CHILLED WATER LOOP CHW DEMAND INLET,CHILLED WATER LOOP CHW DEMAND OUTLET,CHILLED WATER LOOP CHW DEMAND SIDE BRANCHES,CHILLED WATER LOOP CHW DEMAND SIDE CONNECTORS
   Plant Loop Connector,Splitter,CHILLED WATER LOOP CHW DEMAND SPLITTER,CHILLED WATER LOOP CHILLED WATER LOOP,Demand,16
     Plant Loop Connector Branches,1,Splitter,CHILLED WATER LOOP CHW DEMAND SPLITTER,CHILLED WATER LOOP CHW DEMAND INLET BRANCH,CHILLED WATER LOOP CHW DEMAND BYPASS BRANCH,CHILLED WATER LOOP CHILLED WATER LOOP,Demand
     Plant Loop Connector Nodes,   1,Splitter,CHILLED WATER LOOP CHW DEMAND SPLITTER,CHILLED WATER LOOP CHW DEMAND INLET PIPE OUTLET,CHILLED WATER LOOP CHW DEMAND BYPASS INLET,CHILLED WATER LOOP CHILLED WATER LOOP,Demand
     Plant Loop Connector Branches,2,Splitter,CHILLED WATER LOOP CHW DEMAND SPLITTER,CHILLED WATER LOOP CHW DEMAND INLET BRANCH,CORE_BOT_LOTEMP_BRANCH,CHILLED WATER LOOP CHILLED WATER LOOP,Demand
     Plant Loop Connector Nodes,   2,Splitter,CHILLED WATER LOOP CHW DEMAND SPLITTER,CHILLED WATER LOOP CHW DEMAND INLET PIPE OUTLET,CORE_BOT_LOTEMP_CHW_INLET,CHILLED WATER LOOP CHILLED WATER LOOP,Demand
     Plant Loop Connector Branches,3,Splitter,CHILLED WATER LOOP CHW DEMAND SPLITTER,CHILLED WATER LOOP CHW DEMAND INLET BRANCH,CORE_MID_LOTEMP_BRANCH,CHILLED WATER LOOP CHILLED WATER LOOP,Demand
     Plant Loop Connector Nodes,   3,Splitter,CHILLED WATER LOOP CHW DEMAND SPLITTER,CHILLED WATER LOOP CHW DEMAND INLET PIPE OUTLET,CORE_MID_LOTEMP_CHW_INLET,CHILLED WATER LOOP CHILLED WATER LOOP,Demand
     Plant Loop Connector Branches,4,Splitter,CHILLED WATER LOOP CHW DEMAND SPLITTER,CHILLED WATER LOOP CHW DEMAND INLET BRANCH,CORE_TOP_LOTEMP_BRANCH,CHILLED WATER LOOP CHILLED WATER LOOP,Demand
     Plant Loop Connector Nodes,   4,Splitter,CHILLED WATER LOOP CHW DEMAND SPLITTER,CHILLED WATER LOOP CHW DEMAND INLET PIPE OUTLET,CORE_TOP_LOTEMP_CHW_INLET,CHILLED WATER LOOP CHILLED WATER LOOP,Demand
     Plant Loop Connector Branches,5,Splitter,CHILLED WATER LOOP CHW DEMAND SPLITTER,CHILLED WATER LOOP CHW DEMAND INLET BRANCH,PERI2_TOP_LOTEMP_BRANCH,CHILLED WATER LOOP CHILLED WATER LOOP,Demand
     Plant Loop Connector Nodes,   5,Splitter,CHILLED WATER LOOP CHW DEMAND SPLITTER,CHILLED WATER LOOP CHW DEMAND INLET PIPE OUTLET,PERI2_TOP_LOTEMP_CHW_INLET,CHILLED WATER LOOP CHILLED WATER LOOP,Demand
     Plant Loop Connector Branches,6,Splitter,CHILLED WATER LOOP CHW DEMAND SPLITTER,CHILLED WATER LOOP CHW DEMAND INLET BRANCH,PERI3_TOP_LOTEMP_BRANCH,CHILLED WATER LOOP CHILLED WATER LOOP,Demand
     Plant Loop Connector Nodes,   6,Splitter,CHILLED WATER LOOP CHW DEMAND SPLITTER,CHILLED WATER LOOP CHW DEMAND INLET PIPE OUTLET,PERI3_TOP_LOTEMP_CHW_INLET,CHILLED WATER LOOP CHILLED WATER LOOP,Demand
     Plant Loop Connector Branches,7,Splitter,CHILLED WATER LOOP CHW DEMAND SPLITTER,CHILLED WATER LOOP CHW DEMAND INLET BRANCH,PERI4_TOP_LOTEMP_BRANCH,CHILLED WATER LOOP CHILLED WATER LOOP,Demand
     Plant Loop Connector Nodes,   7,Splitter,CHILLED WATER LOOP CHW DEMAND SPLITTER,CHILLED WATER LOOP CHW DEMAND INLET PIPE OUTLET,PERI4_TOP_LOTEMP_CHW_INLET,CHILLED WATER LOOP CHILLED WATER LOOP,Demand
     Plant Loop Connector Branches,8,Splitter,CHILLED WATER LOOP CHW DEMAND SPLITTER,CHILLED WATER LOOP CHW DEMAND INLET BRANCH,PERI1_MID_LOTEMP_BRANCH,CHILLED WATER LOOP CHILLED WATER LOOP,Demand
     Plant Loop Connector Nodes,   8,Splitter,CHILLED WATER LOOP CHW DEMAND SPLITTER,CHILLED WATER LOOP CHW DEMAND INLET PIPE OUTLET,PERI1_MID_LOTEMP_CHW_INLET,CHILLED WATER LOOP CHILLED WATER LOOP,Demand
     Plant Loop Connector Branches,9,Splitter,CHILLED WATER LOOP CHW DEMAND SPLITTER,CHILLED WATER LOOP CHW DEMAND INLET BRANCH,PERI2_MID_LOTEMP_BRANCH,CHILLED WATER LOOP CHILLED WATER LOOP,Demand
     Plant Loop Connector Nodes,   9,Splitter,CHILLED WATER LOOP CHW DEMAND SPLITTER,CHILLED WATER LOOP CHW DEMAND INLET PIPE OUTLET,PERI2_MID_LOTEMP_CHW_INLET,CHILLED WATER LOOP CHILLED WATER LOOP,Demand
     Plant Loop Connector Branches,10,Splitter,CHILLED WATER LOOP CHW DEMAND SPLITTER,CHILLED WATER LOOP CHW DEMAND INLET BRANCH,PERI3_MID_LOTEMP_BRANCH,CHILLED WATER LOOP CHILLED WATER LOOP,Demand
     Plant Loop Connector Nodes,   10,Splitter,CHILLED WATER LOOP CHW DEMAND SPLITTER,CHILLED WATER LOOP CHW DEMAND INLET PIPE OUTLET,PERI3_MID_LOTEMP_CHW_INLET,CHILLED WATER LOOP CHILLED WATER LOOP,Demand
     Plant Loop Connector Branches,11,Splitter,CHILLED WATER LOOP CHW DEMAND SPLITTER,CHILLED WATER LOOP CHW DEMAND INLET BRANCH,PERI4_MID_LOTEMP_BRANCH,CHILLED WATER LOOP CHILLED WATER LOOP,Demand
     Plant Loop Connector Nodes,   11,Splitter,CHILLED WATER LOOP CHW DEMAND SPLITTER,CHILLED WATER LOOP CHW DEMAND INLET PIPE OUTLET,PERI4_MID_LOTEMP_CHW_INLET,CHILLED WATER LOOP CHILLED WATER LOOP,Demand
     Plant Loop Connector Branches,12,Splitter,CHILLED WATER LOOP CHW DEMAND SPLITTER,CHILLED WATER LOOP CHW DEMAND INLET BRANCH,PERI1_BOT_LOTEMP_BRANCH,CHILLED WATER LOOP CHILLED WATER LOOP,Demand
     Plant Loop Connector Nodes,   12,Splitter,CHILLED WATER LOOP CHW DEMAND SPLITTER,CHILLED WATER LOOP CHW DEMAND INLET PIPE OUTLET,PERI1_BOT_LOTEMP_CHW_INLET,CHILLED WATER LOOP CHILLED WATER LOOP,Demand
     Plant Loop Connector Branches,13,Splitter,CHILLED WATER LOOP CHW DEMAND SPLITTER,CHILLED WATER LOOP CHW DEMAND INLET BRANCH,PERI2_BOT_LOTEMP_BRANCH,CHILLED WATER LOOP CHILLED WATER LOOP,Demand
     Plant Loop Connector Nodes,   13,Splitter,CHILLED WATER LOOP CHW DEMAND SPLITTER,CHILLED WATER LOOP CHW DEMAND INLET PIPE OUTLET,PERI2_BOT_LOTEMP_CHW_INLET,CHILLED WATER LOOP CHILLED WATER LOOP,Demand
     Plant Loop Connector Branches,14,Splitter,CHILLED WATER LOOP CHW DEMAND SPLITTER,CHILLED WATER LOOP CHW DEMAND INLET BRANCH,PERI3_BOT_LOTEMP_BRANCH,CHILLED WATER LOOP CHILLED WATER LOOP,Demand
     Plant Loop Connector Nodes,   14,Splitter,CHILLED WATER LOOP CHW DEMAND SPLITTER,CHILLED WATER LOOP CHW DEMAND INLET PIPE OUTLET,PERI3_BOT_LOTEMP_CHW_INLET,CHILLED WATER LOOP CHILLED WATER LOOP,Demand
     Plant Loop Connector Branches,15,Splitter,CHILLED WATER LOOP CHW DEMAND SPLITTER,CHILLED WATER LOOP CHW DEMAND INLET BRANCH,PERI4_BOT_LOTEMP_BRANCH,CHILLED WATER LOOP CHILLED WATER LOOP,Demand
     Plant Loop Connector Nodes,   15,Splitter,CHILLED WATER LOOP CHW DEMAND SPLITTER,CHILLED WATER LOOP CHW DEMAND INLET PIPE OUTLET,PERI4_BOT_LOTEMP_CHW_INLET,CHILLED WATER LOOP CHILLED WATER LOOP,Demand
     Plant Loop Connector Branches,16,Splitter,CHILLED WATER LOOP CHW DEMAND SPLITTER,CHILLED WATER LOOP CHW DEMAND INLET BRANCH,DOAS COOLING COIL CHW BRANCH,CHILLED WATER LOOP CHILLED WATER LOOP,Demand
     Plant Loop Connector Nodes,   16,Splitter,CHILLED WATER LOOP CHW DEMAND SPLITTER,CHILLED WATER LOOP CHW DEMAND INLET PIPE OUTLET,DOAS COOLING COIL CHW INLET,CHILLED WATER LOOP CHILLED WATER LOOP,Demand
   Plant Loop Connector,Mixer,CHILLED WATER LOOP CHW DEMAND MIXER,CHILLED WATER LOOP CHILLED WATER LOOP,Demand,16
     Plant Loop Connector Branches,1,Mixer,CHILLED WATER LOOP CHW DEMAND MIXER,CHILLED WATER LOOP CHW DEMAND BYPASS BRANCH,CHILLED WATER LOOP CHW DEMAND OUTLET BRANCH,CHILLED WATER LOOP CHILLED WATER LOOP,Demand
     Plant Loop Connector Nodes,   1,Mixer,CHILLED WATER LOOP CHW DEMAND MIXER,CHILLED WATER LOOP CHW DEMAND BYPASS OUTLET,CHILLED WATER LOOP CHW DEMAND OUTLET PIPE INLET,CHILLED WATER LOOP CHILLED WATER LOOP,Demand
     Plant Loop Connector Branches,2,Mixer,CHILLED WATER LOOP CHW DEMAND MIXER,CORE_BOT_LOTEMP_BRANCH,CHILLED WATER LOOP CHW DEMAND OUTLET BRANCH,CHILLED WATER LOOP CHILLED WATER LOOP,Demand
     Plant Loop Connector Nodes,   2,Mixer,CHILLED WATER LOOP CHW DEMAND MIXER,CORE_BOT_LOTEMP_CHW_OUTLET,CHILLED WATER LOOP CHW DEMAND OUTLET PIPE INLET,CHILLED WATER LOOP CHILLED WATER LOOP,Demand
     Plant Loop Connector Branches,3,Mixer,CHILLED WATER LOOP CHW DEMAND MIXER,CORE_MID_LOTEMP_BRANCH,CHILLED WATER LOOP CHW DEMAND OUTLET BRANCH,CHILLED WATER LOOP CHILLED WATER LOOP,Demand
     Plant Loop Connector Nodes,   3,Mixer,CHILLED WATER LOOP CHW DEMAND MIXER,CORE_MID_LOTEMP_CHW_OUTLET,CHILLED WATER LOOP CHW DEMAND OUTLET PIPE INLET,CHILLED WATER LOOP CHILLED WATER LOOP,Demand
     Plant Loop Connector Branches,4,Mixer,CHILLED WATER LOOP CHW DEMAND MIXER,CORE_TOP_LOTEMP_BRANCH,CHILLED WATER LOOP CHW DEMAND OUTLET BRANCH,CHILLED WATER LOOP CHILLED WATER LOOP,Demand
     Plant Loop Connector Nodes,   4,Mixer,CHILLED WATER LOOP CHW DEMAND MIXER,CORE_TOP_LOTEMP_CHW_OUTLET,CHILLED WATER LOOP CHW DEMAND OUTLET PIPE INLET,CHILLED WATER LOOP CHILLED WATER LOOP,Demand
     Plant Loop Connector Branches,5,Mixer,CHILLED WATER LOOP CHW DEMAND MIXER,PERI2_TOP_LOTEMP_BRANCH,CHILLED WATER LOOP CHW DEMAND OUTLET BRANCH,CHILLED WATER LOOP CHILLED WATER LOOP,Demand
     Plant Loop Connector Nodes,   5,Mixer,CHILLED WATER LOOP CHW DEMAND MIXER,PERI2_TOP_LOTEMP_CHW_OUTLET,CHILLED WATER LOOP CHW DEMAND OUTLET PIPE INLET,CHILLED WATER LOOP CHILLED WATER LOOP,Demand
     Plant Loop Connector Branches,6,Mixer,CHILLED WATER LOOP CHW DEMAND MIXER,PERI3_TOP_LOTEMP_BRANCH,CHILLED WATER LOOP CHW DEMAND OUTLET BRANCH,CHILLED WATER LOOP CHILLED WATER LOOP,Demand
     Plant Loop Connector Nodes,   6,Mixer,CHILLED WATER LOOP CHW DEMAND MIXER,PERI3_TOP_LOTEMP_CHW_OUTLET,CHILLED WATER LOOP CHW DEMAND OUTLET PIPE INLET,CHILLED WATER LOOP CHILLED WATER LOOP,Demand
     Plant Loop Connector Branches,7,Mixer,CHILLED WATER LOOP CHW DEMAND MIXER,PERI4_TOP_LOTEMP_BRANCH,CHILLED WATER LOOP CHW DEMAND OUTLET BRANCH,CHILLED WATER LOOP CHILLED WATER LOOP,Demand
     Plant Loop Connector Nodes,   7,Mixer,CHILLED WATER LOOP CHW DEMAND MIXER,PERI4_TOP_LOTEMP_CHW_OUTLET,CHILLED WATER LOOP CHW DEMAND OUTLET PIPE INLET,CHILLED WATER LOOP CHILLED WATER LOOP,Demand
     Plant Loop Connector Branches,8,Mixer,CHILLED WATER LOOP CHW DEMAND MIXER,PERI1_MID_LOTEMP_BRANCH,CHILLED WATER LOOP CHW DEMAND OUTLET BRANCH,CHILLED WATER LOOP CHILLED WATER LOOP,Demand
     Plant Loop Connector Nodes,   8,Mixer,CHILLED WATER LOOP CHW DEMAND MIXER,PERI1_MID_LOTEMP_CHW_OUTLET,CHILLED WATER LOOP CHW DEMAND OUTLET PIPE INLET,CHILLED WATER LOOP CHILLED WATER LOOP,Demand
     Plant Loop Connector Branches,9,Mixer,CHILLED WATER LOOP CHW DEMAND MIXER,PERI2_MID_LOTEMP_BRANCH,CHILLED WATER LOOP CHW DEMAND OUTLET BRANCH,CHILLED WATER LOOP CHILLED WATER LOOP,Demand
     Plant Loop Connector Nodes,   9,Mixer,CHILLED WATER LOOP CHW DEMAND MIXER,PERI2_MID_LOTEMP_CHW_OUTLET,CHILLED WATER LOOP CHW DEMAND OUTLET PIPE INLET,CHILLED WATER LOOP CHILLED WATER LOOP,Demand
     Plant Loop Connector Branches,10,Mixer,CHILLED WATER LOOP CHW DEMAND MIXER,PERI3_MID_LOTEMP_BRANCH,CHILLED WATER LOOP CHW DEMAND OUTLET BRANCH,CHILLED WATER LOOP CHILLED WATER LOOP,Demand
     Plant Loop Connector Nodes,   10,Mixer,CHILLED WATER LOOP CHW DEMAND MIXER,PERI3_MID_LOTEMP_CHW_OUTLET,CHILLED WATER LOOP CHW DEMAND OUTLET PIPE INLET,CHILLED WATER LOOP CHILLED WATER LOOP,Demand
     Plant Loop Connector Branches,11,Mixer,CHILLED WATER LOOP CHW DEMAND MIXER,PERI4_MID_LOTEMP_BRANCH,CHILLED WATER LOOP CHW DEMAND OUTLET BRANCH,CHILLED WATER LOOP CHILLED WATER LOOP,Demand
     Plant Loop Connector Nodes,   11,Mixer,CHILLED WATER LOOP CHW DEMAND MIXER,PERI4_MID_LOTEMP_CHW_OUTLET,CHILLED WATER LOOP CHW DEMAND OUTLET PIPE INLET,CHILLED WATER LOOP CHILLED WATER LOOP,Demand
     Plant Loop Connector Branches,12,Mixer,CHILLED WATER LOOP CHW DEMAND MIXER,PERI1_BOT_LOTEMP_BRANCH,CHILLED WATER LOOP CHW DEMAND OUTLET BRANCH,CHILLED WATER LOOP CHILLED WATER LOOP,Demand
     Plant Loop Connector Nodes,   12,Mixer,CHILLED WATER LOOP CHW DEMAND MIXER,PERI1_BOT_LOTEMP_CHW_OUTLET,CHILLED WATER LOOP CHW DEMAND OUTLET PIPE INLET,CHILLED WATER LOOP CHILLED WATER LOOP,Demand
     Plant Loop Connector Branches,13,Mixer,CHILLED WATER LOOP CHW DEMAND MIXER,PERI2_BOT_LOTEMP_BRANCH,CHILLED WATER LOOP CHW DEMAND OUTLET BRANCH,CHILLED WATER LOOP CHILLED WATER LOOP,Demand
     Plant Loop Connector Nodes,   13,Mixer,CHILLED WATER LOOP CHW DEMAND MIXER,PERI2_BOT_LOTEMP_CHW_OUTLET,CHILLED WATER LOOP CHW DEMAND OUTLET PIPE INLET,CHILLED WATER LOOP CHILLED WATER LOOP,Demand
     Plant Loop Connector Branches,14,Mixer,CHILLED WATER LOOP CHW DEMAND MIXER,PERI3_BOT_LOTEMP_BRANCH,CHILLED WATER LOOP CHW DEMAND OUTLET BRANCH,CHILLED WATER LOOP CHILLED WATER LOOP,Demand
     Plant Loop Connector Nodes,   14,Mixer,CHILLED WATER LOOP CHW DEMAND MIXER,PERI3_BOT_LOTEMP_CHW_OUTLET,CHILLED WATER LOOP CHW DEMAND OUTLET PIPE INLET,CHILLED WATER LOOP CHILLED WATER LOOP,Demand
     Plant Loop Connector Branches,15,Mixer,CHILLED WATER LOOP CHW DEMAND MIXER,PERI4_BOT_LOTEMP_BRANCH,CHILLED WATER LOOP CHW DEMAND OUTLET BRANCH,CHILLED WATER LOOP CHILLED WATER LOOP,Demand
     Plant Loop Connector Nodes,   15,Mixer,CHILLED WATER LOOP CHW DEMAND MIXER,PERI4_BOT_LOTEMP_CHW_OUTLET,CHILLED WATER LOOP CHW DEMAND OUTLET PIPE INLET,CHILLED WATER LOOP CHILLED WATER LOOP,Demand
     Plant Loop Connector Branches,16,Mixer,CHILLED WATER LOOP CHW DEMAND MIXER,DOAS COOLING COIL CHW BRANCH,CHILLED WATER LOOP CHW DEMAND OUTLET BRANCH,CHILLED WATER LOOP CHILLED WATER LOOP,Demand
     Plant Loop Connector Nodes,   16,Mixer,CHILLED WATER LOOP CHW DEMAND MIXER,DOAS COOLING COIL CHW OUTLET,CHILLED WATER LOOP CHW DEMAND OUTLET PIPE INLET,CHILLED WATER LOOP CHILLED WATER LOOP,Demand
 Plant Loop,CHILLED WATER LOOP CHILLED WATER LOOP,Supply,CHILLED WATER LOOP CHW SUPPLY INLET,CHILLED WATER LOOP CHW SUPPLY OUTLET,CHILLED WATER LOOP CHW SUPPLY SIDE BRANCHES,CHILLED WATER LOOP CHW SUPPLY SIDE CONNECTORS
   Plant Loop Connector,Splitter,CHILLED WATER LOOP CHW SUPPLY SPLITTER,CHILLED WATER LOOP CHILLED WATER LOOP,Supply,2
     Plant Loop Connector Branches,1,Splitter,CHILLED WATER LOOP CHW SUPPLY SPLITTER,CHILLED WATER LOOP CHW SUPPLY INLET BRANCH,CHILLED WATER LOOP CHW SUPPLY BYPASS BRANCH,CHILLED WATER LOOP CHILLED WATER LOOP,Supply
     Plant Loop Connector Nodes,   1,Splitter,CHILLED WATER LOOP CHW SUPPLY SPLITTER,CHILLED WATER LOOP CHW PUMP OUTLET,CHILLED WATER LOOP CHW SUPPLY BYPASS INLET,CHILLED WATER LOOP CHILLED WATER LOOP,Supply
     Plant Loop Connector Branches,2,Splitter,CHILLED WATER LOOP CHW SUPPLY SPLITTER,CHILLED WATER LOOP CHW SUPPLY INLET BRANCH,MAIN CHILLER CHW BRANCH,CHILLED WATER LOOP CHILLED WATER LOOP,Supply
     Plant Loop Connector Nodes,   2,Splitter,CHILLED WATER LOOP CHW SUPPLY SPLITTER,CHILLED WATER LOOP CHW PUMP OUTLET,PURCHASED COOLING INLET NODE,CHILLED WATER LOOP CHILLED WATER LOOP,Supply
   Plant Loop Connector,Mixer,CHILLED WATER LOOP CHW SUPPLY MIXER,CHILLED WATER LOOP CHILLED WATER LOOP,Supply,2
     Plant Loop Connector Branches,1,Mixer,CHILLED WATER LOOP CHW SUPPLY MIXER,CHILLED WATER LOOP CHW SUPPLY BYPASS BRANCH,CHILLED WATER LOOP CHW SUPPLY OUTLET BRANCH,CHILLED WATER LOOP CHILLED WATER LOOP,Supply
     Plant Loop Connector Nodes,   1,Mixer,CHILLED WATER LOOP CHW SUPPLY MIXER,CHILLED WATER LOOP CHW SUPPLY BYPASS OUTLET,CHILLED WATER LOOP CHW SUPPLY OUTLET PIPE INLET,CHILLED WATER LOOP CHILLED WATER LOOP,Supply
     Plant Loop Connector Branches,2,Mixer,CHILLED WATER LOOP CHW SUPPLY MIXER,MAIN CHILLER CHW BRANCH,CHILLED WATER LOOP CHW SUPPLY OUTLET BRANCH,CHILLED WATER LOOP CHILLED WATER LOOP,Supply
     Plant Loop Connector Nodes,   2,Mixer,CHILLED WATER LOOP CHW SUPPLY MIXER,PURCHASED COOLING OUTLET NODE,CHILLED WATER LOOP CHW SUPPLY OUTLET PIPE INLET,CHILLED WATER LOOP CHILLED WATER LOOP,Supply
 Plant Loop Supply Connection,CHILLED WATER LOOP CHILLED WATER LOOP,CHILLED WATER LOOP CHW SUPPLY OUTLET,CHILLED WATER LOOP CHW DEMAND INLET
 Plant Loop Return Connection,CHILLED WATER LOOP CHILLED WATER LOOP,CHILLED WATER LOOP CHW DEMAND OUTLET,CHILLED WATER LOOP CHW SUPPLY INLET
 Plant Loop,HOT WATER LOOP HOT WATER LOOP,Demand,HOT WATER LOOP HW DEMAND INLET,HOT WATER LOOP HW DEMAND OUTLET,HOT WATER LOOP HW DEMAND SIDE BRANCHES,HOT WATER LOOP HW DEMAND SIDE CONNECTORS
   Plant Loop Connector,Splitter,HOT WATER LOOP HW DEMAND SPLITTER,HOT WATER LOOP HOT WATER LOOP,Demand,17
     Plant Loop Connector Branches,1,Splitter,HOT WATER LOOP HW DEMAND SPLITTER,HOT WATER LOOP HW DEMAND INLET BRANCH,HOT WATER LOOP HW DEMAND BYPASS BRANCH,HOT WATER LOOP HOT WATER LOOP,Demand
     Plant Loop Connector Nodes,   1,Splitter,HOT WATER LOOP HW DEMAND SPLITTER,HOT WATER LOOP HW DEMAND INLET PIPE OUTLET,HOT WATER LOOP HW DEMAND BYPASS INLET,HOT WATER LOOP HOT WATER LOOP,Demand
     Plant Loop Connector Branches,2,Splitter,HOT WATER LOOP HW DEMAND SPLITTER,HOT WATER LOOP HW DEMAND INLET BRANCH,CORE_TOP RADIANT BRANCH,HOT WATER LOOP HOT WATER LOOP,Demand
     Plant Loop Connector Nodes,   2,Splitter,HOT WATER LOOP HW DEMAND SPLITTER,HOT WATER LOOP HW DEMAND INLET PIPE OUTLET,CORE_TOP RADIANT WATER INLET NODE,HOT WATER LOOP HOT WATER LOOP,Demand
     Plant Loop Connector Branches,3,Splitter,HOT WATER LOOP HW DEMAND SPLITTER,HOT WATER LOOP HW DEMAND INLET BRANCH,CORE_MID RADIANT BRANCH,HOT WATER LOOP HOT WATER LOOP,Demand
     Plant Loop Connector Nodes,   3,Splitter,HOT WATER LOOP HW DEMAND SPLITTER,HOT WATER LOOP HW DEMAND INLET PIPE OUTLET,CORE_MID RADIANT WATER INLET NODE,HOT WATER LOOP HOT WATER LOOP,Demand
     Plant Loop Connector Branches,4,Splitter,HOT WATER LOOP HW DEMAND SPLITTER,HOT WATER LOOP HW DEMAND INLET BRANCH,CORE_BOT RADIANT BRANCH,HOT WATER LOOP HOT WATER LOOP,Demand
     Plant Loop Connector Nodes,   4,Splitter,HOT WATER LOOP HW DEMAND SPLITTER,HOT WATER LOOP HW DEMAND INLET PIPE OUTLET,CORE_BOT RADIANT WATER INLET NODE,HOT WATER LOOP HOT WATER LOOP,Demand
     Plant Loop Connector Branches,5,Splitter,HOT WATER LOOP HW DEMAND SPLITTER,HOT WATER LOOP HW DEMAND INLET BRANCH,PERI1_TOP RADIANT BRANCH,HOT WATER LOOP HOT WATER LOOP,Demand
     Plant Loop Connector Nodes,   5,Splitter,HOT WATER LOOP HW DEMAND SPLITTER,HOT WATER LOOP HW DEMAND INLET PIPE OUTLET,PERI1_TOP RADIANT WATER INLET NODE,HOT WATER LOOP HOT WATER LOOP,Demand
     Plant Loop Connector Branches,6,Splitter,HOT WATER LOOP HW DEMAND SPLITTER,HOT WATER LOOP HW DEMAND INLET BRANCH,PERI2_TOP RADIANT BRANCH,HOT WATER LOOP HOT WATER LOOP,Demand
     Plant Loop Connector Nodes,   6,Splitter,HOT WATER LOOP HW DEMAND SPLITTER,HOT WATER LOOP HW DEMAND INLET PIPE OUTLET,PERI2_TOP RADIANT WATER INLET NODE,HOT WATER LOOP HOT WATER LOOP,Demand
     Plant Loop Connector Branches,7,Splitter,HOT WATER LOOP HW DEMAND SPLITTER,HOT WATER LOOP HW DEMAND INLET BRANCH,PERI4_TOP RADIANT BRANCH,HOT WATER LOOP HOT WATER LOOP,Demand
     Plant Loop Connector Nodes,   7,Splitter,HOT WATER LOOP HW DEMAND SPLITTER,HOT WATER LOOP HW DEMAND INLET PIPE OUTLET,PERI4_TOP RADIANT WATER INLET NODE,HOT WATER LOOP HOT WATER LOOP,Demand
     Plant Loop Connector Branches,8,Splitter,HOT WATER LOOP HW DEMAND SPLITTER,HOT WATER LOOP HW DEMAND INLET BRANCH,PERI1_MID RADIANT BRANCH,HOT WATER LOOP HOT WATER LOOP,Demand
     Plant Loop Connector Nodes,   8,Splitter,HOT WATER LOOP HW DEMAND SPLITTER,HOT WATER LOOP HW DEMAND INLET PIPE OUTLET,PERI1_MID RADIANT WATER INLET NODE,HOT WATER LOOP HOT WATER LOOP,Demand
     Plant Loop Connector Branches,9,Splitter,HOT WATER LOOP HW DEMAND SPLITTER,HOT WATER LOOP HW DEMAND INLET BRANCH,PERI2_MID RADIANT BRANCH,HOT WATER LOOP HOT WATER LOOP,Demand
     Plant Loop Connector Nodes,   9,Splitter,HOT WATER LOOP HW DEMAND SPLITTER,HOT WATER LOOP HW DEMAND INLET PIPE OUTLET,PERI2_MID RADIANT WATER INLET NODE,HOT WATER LOOP HOT WATER LOOP,Demand
     Plant Loop Connector Branches,10,Splitter,HOT WATER LOOP HW DEMAND SPLITTER,HOT WATER LOOP HW DEMAND INLET BRANCH,PERI3_MID RADIANT BRANCH,HOT WATER LOOP HOT WATER LOOP,Demand
     Plant Loop Connector Nodes,   10,Splitter,HOT WATER LOOP HW DEMAND SPLITTER,HOT WATER LOOP HW DEMAND INLET PIPE OUTLET,PERI3_MID RADIANT WATER INLET NODE,HOT WATER LOOP HOT WATER LOOP,Demand
     Plant Loop Connector Branches,11,Splitter,HOT WATER LOOP HW DEMAND SPLITTER,HOT WATER LOOP HW DEMAND INLET BRANCH,PERI4_MID RADIANT BRANCH,HOT WATER LOOP HOT WATER LOOP,Demand
     Plant Loop Connector Nodes,   11,Splitter,HOT WATER LOOP HW DEMAND SPLITTER,HOT WATER LOOP HW DEMAND INLET PIPE OUTLET,PERI4_MID RADIANT WATER INLET NODE,HOT WATER LOOP HOT WATER LOOP,Demand
     Plant Loop Connector Branches,12,Splitter,HOT WATER LOOP HW DEMAND SPLITTER,HOT WATER LOOP HW DEMAND INLET BRANCH,PERI1_BOT RADIANT BRANCH,HOT WATER LOOP HOT WATER LOOP,Demand
     Plant Loop Connector Nodes,   12,Splitter,HOT WATER LOOP HW DEMAND SPLITTER,HOT WATER LOOP HW DEMAND INLET PIPE OUTLET,PERI1_BOT RADIANT WATER INLET NODE,HOT WATER LOOP HOT WATER LOOP,Demand
     Plant Loop Connector Branches,13,Splitter,HOT WATER LOOP HW DEMAND SPLITTER,HOT WATER LOOP HW DEMAND INLET BRANCH,PERI2_BOT RADIANT BRANCH,HOT WATER LOOP HOT WATER LOOP,Demand
     Plant Loop Connector Nodes,   13,Splitter,HOT WATER LOOP HW DEMAND SPLITTER,HOT WATER LOOP HW DEMAND INLET PIPE OUTLET,PERI2_BOT RADIANT WATER INLET NODE,HOT WATER LOOP HOT WATER LOOP,Demand
     Plant Loop Connector Branches,14,Splitter,HOT WATER LOOP HW DEMAND SPLITTER,HOT WATER LOOP HW DEMAND INLET BRANCH,PERI3_BOT RADIANT BRANCH,HOT WATER LOOP HOT WATER LOOP,Demand
     Plant Loop Connector Nodes,   14,Splitter,HOT WATER LOOP HW DEMAND SPLITTER,HOT WATER LOOP HW DEMAND INLET PIPE OUTLET,PERI3_BOT RADIANT WATER INLET NODE,HOT WATER LOOP HOT WATER LOOP,Demand
     Plant Loop Connector Branches,15,Splitter,HOT WATER LOOP HW DEMAND SPLITTER,HOT WATER LOOP HW DEMAND INLET BRANCH,PERI4_BOT RADIANT BRANCH,HOT WATER LOOP HOT WATER LOOP,Demand
     Plant Loop Connector Nodes,   15,Splitter,HOT WATER LOOP HW DEMAND SPLITTER,HOT WATER LOOP HW DEMAND INLET PIPE OUTLET,PERI4_BOT RADIANT WATER INLET NODE,HOT WATER LOOP HOT WATER LOOP,Demand
     Plant Loop Connector Branches,16,Splitter,HOT WATER LOOP HW DEMAND SPLITTER,HOT WATER LOOP HW DEMAND INLET BRANCH,PERI3_TOP RADIANT BRANCH,HOT WATER LOOP HOT WATER LOOP,Demand
     Plant Loop Connector Nodes,   16,Splitter,HOT WATER LOOP HW DEMAND SPLITTER,HOT WATER LOOP HW DEMAND INLET PIPE OUTLET,PERI3_TOP RADIANT WATER INLET NODE,HOT WATER LOOP HOT WATER LOOP,Demand
     Plant Loop Connector Branches,17,Splitter,HOT WATER LOOP HW DEMAND SPLITTER,HOT WATER LOOP HW DEMAND INLET BRANCH,DOAS HEATING COIL HW BRANCH,HOT WATER LOOP HOT WATER LOOP,Demand
     Plant Loop Connector Nodes,   17,Splitter,HOT WATER LOOP HW DEMAND SPLITTER,HOT WATER LOOP HW DEMAND INLET PIPE OUTLET,DOAS HEATING COIL HW INLET,HOT WATER LOOP HOT WATER LOOP,Demand
   Plant Loop Connector,Mixer,HOT WATER LOOP HW DEMAND MIXER,HOT WATER LOOP HOT WATER LOOP,Demand,17
     Plant Loop Connector Branches,1,Mixer,HOT WATER LOOP HW DEMAND MIXER,HOT WATER LOOP HW DEMAND BYPASS BRANCH,HOT WATER LOOP HW DEMAND OUTLET BRANCH,HOT WATER LOOP HOT WATER LOOP,Demand
     Plant Loop Connector Nodes,   1,Mixer,HOT WATER LOOP HW DEMAND MIXER,HOT WATER LOOP HW DEMAND BYPASS OUTLET,HOT WATER LOOP HW DEMAND OUTLET PIPE INLET,HOT WATER LOOP HOT WATER LOOP,Demand
     Plant Loop Connector Branches,2,Mixer,HOT WATER LOOP HW DEMAND MIXER,CORE_TOP RADIANT BRANCH,HOT WATER LOOP HW DEMAND OUTLET BRANCH,HOT WATER LOOP HOT WATER LOOP,Demand
     Plant Loop Connector Nodes,   2,Mixer,HOT WATER LOOP HW DEMAND MIXER,CORE_TOP RADIANT WATER OUTLET NODE,HOT WATER LOOP HW DEMAND OUTLET PIPE INLET,HOT WATER LOOP HOT WATER LOOP,Demand
     Plant Loop Connector Branches,3,Mixer,HOT WATER LOOP HW DEMAND MIXER,CORE_MID RADIANT BRANCH,HOT WATER LOOP HW DEMAND OUTLET BRANCH,HOT WATER LOOP HOT WATER LOOP,Demand
     Plant Loop Connector Nodes,   3,Mixer,HOT WATER LOOP HW DEMAND MIXER,CORE_MID RADIANT WATER OUTLET NODE,HOT WATER LOOP HW DEMAND OUTLET PIPE INLET,HOT WATER LOOP HOT WATER LOOP,Demand
     Plant Loop Connector Branches,4,Mixer,HOT WATER LOOP HW DEMAND MIXER,CORE_BOT RADIANT BRANCH,HOT WATER LOOP HW DEMAND OUTLET BRANCH,HOT WATER LOOP HOT WATER LOOP,Demand
     Plant Loop Connector Nodes,   4,Mixer,HOT WATER LOOP HW DEMAND MIXER,CORE_BOT RADIANT WATER OUTLET NODE,HOT WATER LOOP HW DEMAND OUTLET PIPE INLET,HOT WATER LOOP HOT WATER LOOP,Demand
     Plant Loop Connector Branches,5,Mixer,HOT WATER LOOP HW DEMAND MIXER,PERI1_TOP RADIANT BRANCH,HOT WATER LOOP HW DEMAND OUTLET BRANCH,HOT WATER LOOP HOT WATER LOOP,Demand
     Plant Loop Connector Nodes,   5,Mixer,HOT WATER LOOP HW DEMAND MIXER,PERI1_TOP RADIANT WATER OUTLET NODE,HOT WATER LOOP HW DEMAND OUTLET PIPE INLET,HOT WATER LOOP HOT WATER LOOP,Demand
     Plant Loop Connector Branches,6,Mixer,HOT WATER LOOP HW DEMAND MIXER,PERI2_TOP RADIANT BRANCH,HOT WATER LOOP HW DEMAND OUTLET BRANCH,HOT WATER LOOP HOT WATER LOOP,Demand
     Plant Loop Connector Nodes,   6,Mixer,HOT WATER LOOP HW DEMAND MIXER,PERI2_TOP RADIANT WATER OUTLET NODE,HOT WATER LOOP HW DEMAND OUTLET PIPE INLET,HOT WATER LOOP HOT WATER LOOP,Demand
     Plant Loop Connector Branches,7,Mixer,HOT WATER LOOP HW DEMAND MIXER,PERI3_TOP RADIANT BRANCH,HOT WATER LOOP HW DEMAND OUTLET BRANCH,HOT WATER LOOP HOT WATER LOOP,Demand
     Plant Loop Connector Nodes,   7,Mixer,HOT WATER LOOP HW DEMAND MIXER,PERI3_TOP RADIANT WATER OUTLET NODE,HOT WATER LOOP HW DEMAND OUTLET PIPE INLET,HOT WATER LOOP HOT WATER LOOP,Demand
     Plant Loop Connector Branches,8,Mixer,HOT WATER LOOP HW DEMAND MIXER,PERI4_TOP RADIANT BRANCH,HOT WATER LOOP HW DEMAND OUTLET BRANCH,HOT WATER LOOP HOT WATER LOOP,Demand
     Plant Loop Connector Nodes,   8,Mixer,HOT WATER LOOP HW DEMAND MIXER,PERI4_TOP RADIANT WATER OUTLET NODE,HOT WATER LOOP HW DEMAND OUTLET PIPE INLET,HOT WATER LOOP HOT WATER LOOP,Demand
     Plant Loop Connector Branches,9,Mixer,HOT WATER LOOP HW DEMAND MIXER,PERI1_MID RADIANT BRANCH,HOT WATER LOOP HW DEMAND OUTLET BRANCH,HOT WATER LOOP HOT WATER LOOP,Demand
     Plant Loop Connector Nodes,   9,Mixer,HOT WATER LOOP HW DEMAND MIXER,PERI1_MID RADIANT WATER OUTLET NODE,HOT WATER LOOP HW DEMAND OUTLET PIPE INLET,HOT WATER LOOP HOT WATER LOOP,Demand
     Plant Loop Connector Branches,10,Mixer,HOT WATER LOOP HW DEMAND MIXER,PERI2_MID RADIANT BRANCH,HOT WATER LOOP HW DEMAND OUTLET BRANCH,HOT WATER LOOP HOT WATER LOOP,Demand
     Plant Loop Connector Nodes,   10,Mixer,HOT WATER LOOP HW DEMAND MIXER,PERI2_MID RADIANT WATER OUTLET NODE,HOT WATER LOOP HW DEMAND OUTLET PIPE INLET,HOT WATER LOOP HOT WATER LOOP,Demand
     Plant Loop Connector Branches,11,Mixer,HOT WATER LOOP HW DEMAND MIXER,PERI3_MID RADIANT BRANCH,HOT WATER LOOP HW DEMAND OUTLET BRANCH,HOT WATER LOOP HOT WATER LOOP,Demand
     Plant Loop Connector Nodes,   11,Mixer,HOT WATER LOOP HW DEMAND MIXER,PERI3_MID RADIANT WATER OUTLET NODE,HOT WATER LOOP HW DEMAND OUTLET PIPE INLET,HOT WATER LOOP HOT WATER LOOP,Demand
     Plant Loop Connector Branches,12,Mixer,HOT WATER LOOP HW DEMAND MIXER,PERI4_MID RADIANT BRANCH,HOT WATER LOOP HW DEMAND OUTLET BRANCH,HOT WATER LOOP HOT WATER LOOP,Demand
     Plant Loop Connector Nodes,   12,Mixer,HOT WATER LOOP HW DEMAND MIXER,PERI4_MID RADIANT WATER OUTLET NODE,HOT WATER LOOP HW DEMAND OUTLET PIPE INLET,HOT WATER LOOP HOT WATER LOOP,Demand
     Plant Loop Connector Branches,13,Mixer,HOT WATER LOOP HW DEMAND MIXER,PERI1_BOT RADIANT BRANCH,HOT WATER LOOP HW DEMAND OUTLET BRANCH,HOT WATER LOOP HOT WATER LOOP,Demand
     Plant Loop Connector Nodes,   13,Mixer,HOT WATER LOOP HW DEMAND MIXER,PERI1_BOT RADIANT WATER OUTLET NODE,HOT WATER LOOP HW DEMAND OUTLET PIPE INLET,HOT WATER LOOP HOT WATER LOOP,Demand
     Plant Loop Connector Branches,14,Mixer,HOT WATER LOOP HW DEMAND MIXER,PERI2_BOT RADIANT BRANCH,HOT WATER LOOP HW DEMAND OUTLET BRANCH,HOT WATER LOOP HOT WATER LOOP,Demand
     Plant Loop Connector Nodes,   14,Mixer,HOT WATER LOOP HW DEMAND MIXER,PERI2_BOT RADIANT WATER OUTLET NODE,HOT WATER LOOP HW DEMAND OUTLET PIPE INLET,HOT WATER LOOP HOT WATER LOOP,Demand
     Plant Loop Connector Branches,15,Mixer,HOT WATER LOOP HW DEMAND MIXER,PERI3_BOT RADIANT BRANCH,HOT WATER LOOP HW DEMAND OUTLET BRANCH,HOT WATER LOOP HOT WATER LOOP,Demand
     Plant Loop Connector Nodes,   15,Mixer,HOT WATER LOOP HW DEMAND MIXER,PERI3_BOT RADIANT WATER OUTLET NODE,HOT WATER LOOP HW DEMAND OUTLET PIPE INLET,HOT WATER LOOP HOT WATER LOOP,Demand
     Plant Loop Connector Branches,16,Mixer,HOT WATER LOOP HW DEMAND MIXER,PERI4_BOT RADIANT BRANCH,HOT WATER LOOP HW DEMAND OUTLET BRANCH,HOT WATER LOOP HOT WATER LOOP,Demand
     Plant Loop Connector Nodes,   16,Mixer,HOT WATER LOOP HW DEMAND MIXER,PERI4_BOT RADIANT WATER OUTLET NODE,HOT WATER LOOP HW DEMAND OUTLET PIPE INLET,HOT WATER LOOP HOT WATER LOOP,Demand
     Plant Loop Connector Branches,17,Mixer,HOT WATER LOOP HW DEMAND MIXER,DOAS HEATING COIL HW BRANCH,HOT WATER LOOP HW DEMAND OUTLET BRANCH,HOT WATER LOOP HOT WATER LOOP,Demand
     Plant Loop Connector Nodes,   17,Mixer,HOT WATER LOOP HW DEMAND MIXER,DOAS HEATING COIL HW OUTLET,HOT WATER LOOP HW DEMAND OUTLET PIPE INLET,HOT WATER LOOP HOT WATER LOOP,Demand
 Plant Loop,HOT WATER LOOP HOT WATER LOOP,Supply,HOT WATER LOOP HW SUPPLY INLET,HOT WATER LOOP HW SUPPLY OUTLET,HOT WATER LOOP HW SUPPLY SIDE BRANCHES,HOT WATER LOOP HW SUPPLY SIDE CONNECTORS
   Plant Loop Connector,Splitter,HOT WATER LOOP HW SUPPLY SPLITTER,HOT WATER LOOP HOT WATER LOOP,Supply,2
     Plant Loop Connector Branches,1,Splitter,HOT WATER LOOP HW SUPPLY SPLITTER,HOT WATER LOOP HW SUPPLY INLET BRANCH,MAIN BOILER HW BRANCH,HOT WATER LOOP HOT WATER LOOP,Supply
     Plant Loop Connector Nodes,   1,Splitter,HOT WATER LOOP HW SUPPLY SPLITTER,HOT WATER LOOP HW PUMP OUTLET,PURCHASED HEAT INLET NODE,HOT WATER LOOP HOT WATER LOOP,Supply
     Plant Loop Connector Branches,2,Splitter,HOT WATER LOOP HW SUPPLY SPLITTER,HOT WATER LOOP HW SUPPLY INLET BRANCH,HOT WATER LOOP HW SUPPLY BYPASS BRANCH,HOT WATER LOOP HOT WATER LOOP,Supply
     Plant Loop Connector Nodes,   2,Splitter,HOT WATER LOOP HW SUPPLY SPLITTER,HOT WATER LOOP HW PUMP OUTLET,HOT WATER LOOP HW SUPPLY BYPASS INLET,HOT WATER LOOP HOT WATER LOOP,Supply
   Plant Loop Connector,Mixer,HOT WATER LOOP HW SUPPLY MIXER,HOT WATER LOOP HOT WATER LOOP,Supply,2
     Plant Loop Connector Branches,1,Mixer,HOT WATER LOOP HW SUPPLY MIXER,MAIN BOILER HW BRANCH,HOT WATER LOOP HW SUPPLY OUTLET BRANCH,HOT WATER LOOP HOT WATER LOOP,Supply
     Plant Loop Connector Nodes,   1,Mixer,HOT WATER LOOP HW SUPPLY MIXER,PURCHASED HEAT OUTLET NODE,HOT WATER LOOP HW SUPPLY OUTLET PIPE INLET,HOT WATER LOOP HOT WATER LOOP,Supply
     Plant Loop Connector Branches,2,Mixer,HOT WATER LOOP HW SUPPLY MIXER,HOT WATER LOOP HW SUPPLY BYPASS BRANCH,HOT WATER LOOP HW SUPPLY OUTLET BRANCH,HOT WATER LOOP HOT WATER LOOP,Supply
     Plant Loop Connector Nodes,   2,Mixer,HOT WATER LOOP HW SUPPLY MIXER,HOT WATER LOOP HW SUPPLY BYPASS OUTLET,HOT WATER LOOP HW SUPPLY OUTLET PIPE INLET,HOT WATER LOOP HOT WATER LOOP,Supply
 Plant Loop Supply Connection,HOT WATER LOOP HOT WATER LOOP,HOT WATER LOOP HW SUPPLY OUTLET,HOT WATER LOOP HW DEMAND INLET
 Plant Loop Return Connection,HOT WATER LOOP HOT WATER LOOP,HOT WATER LOOP HW DEMAND OUTLET,HOT WATER LOOP HW SUPPLY INLET
 Plant Loop,CHILLED WATER LOOP CHILLED WATER LOOP2,Demand,CHILLED WATER LOOP CHW DEMAND INLET2,CHILLED WATER LOOP CHW DEMAND OUTLET2,CHILLED WATER LOOP CHW DEMAND SIDE BRANCHES2,CHILLED WATER LOOP CHW DEMAND SIDE CONNECTORS2
   Plant Loop Connector,Splitter,CHILLED WATER LOOP CHW DEMAND SPLITTER2,CHILLED WATER LOOP CHILLED WATER LOOP2,Demand,2
     Plant Loop Connector Branches,1,Splitter,CHILLED WATER LOOP CHW DEMAND SPLITTER2,CHILLED WATER LOOP CHW DEMAND INLET BRANCH2,CHILLED WATER LOOP CHW DEMAND BYPASS BRANCH2,CHILLED WATER LOOP CHILLED WATER LOOP2,Demand
     Plant Loop Connector Nodes,   1,Splitter,CHILLED WATER LOOP CHW DEMAND SPLITTER2,CHILLED WATER LOOP CHW DEMAND INLET PIPE OUTLET2,CHILLED WATER LOOP CHW DEMAND BYPASS INLET2,CHILLED WATER LOOP CHILLED WATER LOOP2,Demand
     Plant Loop Connector Branches,2,Splitter,CHILLED WATER LOOP CHW DEMAND SPLITTER2,CHILLED WATER LOOP CHW DEMAND INLET BRANCH2,PERI1_TOP_LOTEMP_BRANCH,CHILLED WATER LOOP CHILLED WATER LOOP2,Demand
     Plant Loop Connector Nodes,   2,Splitter,CHILLED WATER LOOP CHW DEMAND SPLITTER2,CHILLED WATER LOOP CHW DEMAND INLET PIPE OUTLET2,PERI1_TOP_LOTEMP_CHW_INLET,CHILLED WATER LOOP CHILLED WATER LOOP2,Demand
   Plant Loop Connector,Mixer,CHILLED WATER LOOP CHW DEMAND MIXER2,CHILLED WATER LOOP CHILLED WATER LOOP2,Demand,2
     Plant Loop Connector Branches,1,Mixer,CHILLED WATER LOOP CHW DEMAND MIXER2,CHILLED WATER LOOP CHW DEMAND BYPASS BRANCH2,CHILLED WATER LOOP CHW DEMAND OUTLET BRANCH2,CHILLED WATER LOOP CHILLED WATER LOOP2,Demand
     Plant Loop Connector Nodes,   1,Mixer,CHILLED WATER LOOP CHW DEMAND MIXER2,CHILLED WATER LOOP CHW DEMAND BYPASS OUTLET2,CHILLED WATER LOOP CHW DEMAND OUTLET PIPE INLET2,CHILLED WATER LOOP CHILLED WATER LOOP2,Demand
     Plant Loop Connector Branches,2,Mixer,CHILLED WATER LOOP CHW DEMAND MIXER2,PERI1_TOP_LOTEMP_BRANCH,CHILLED WATER LOOP CHW DEMAND OUTLET BRANCH2,CHILLED WATER LOOP CHILLED WATER LOOP2,Demand
     Plant Loop Connector Nodes,   2,Mixer,CHILLED WATER LOOP CHW DEMAND MIXER2,PERI1_TOP_LOTEMP_CHW_OUTLET,CHILLED WATER LOOP CHW DEMAND OUTLET PIPE INLET2,CHILLED WATER LOOP CHILLED WATER LOOP2,Demand
 Plant Loop,CHILLED WATER LOOP CHILLED WATER LOOP2,Supply,CHILLED WATER LOOP CHW SUPPLY INLET2,CHILLED WATER LOOP CHW SUPPLY OUTLET2,CHILLED WATER LOOP CHW SUPPLY SIDE BRANCHES2,CHILLED WATER LOOP CHW SUPPLY SIDE CONNECTORS2
   Plant Loop Connector,Splitter,CHILLED WATER LOOP CHW SUPPLY SPLITTER2,CHILLED WATER LOOP CHILLED WATER LOOP2,Supply,2
     Plant Loop Connector Branches,1,Splitter,CHILLED WATER LOOP CHW SUPPLY SPLITTER2,CHILLED WATER LOOP CHW SUPPLY INLET BRANCH2,CHILLED WATER LOOP CHW SUPPLY BYPASS BRANCH2,CHILLED WATER LOOP CHILLED WATER LOOP2,Supply
     Plant Loop Connector Nodes,   1,Splitter,CHILLED WATER LOOP CHW SUPPLY SPLITTER2,CHILLED WATER LOOP CHW PUMP OUTLET2,CHILLED WATER LOOP CHW SUPPLY BYPASS INLET2,CHILLED WATER LOOP CHILLED WATER LOOP2,Supply
     Plant Loop Connector Branches,2,Splitter,CHILLED WATER LOOP CHW SUPPLY SPLITTER2,CHILLED WATER LOOP CHW SUPPLY INLET BRANCH2,MAIN CHILLER CHW BRANCH2,CHILLED WATER LOOP CHILLED WATER LOOP2,Supply
     Plant Loop Connector Nodes,   2,Splitter,CHILLED WATER LOOP CHW SUPPLY SPLITTER2,CHILLED WATER LOOP CHW PUMP OUTLET2,PURCHASED COOLING INLET NODE2,CHILLED WATER LOOP CHILLED WATER LOOP2,Supply
   Plant Loop Connector,Mixer,CHILLED WATER LOOP CHW SUPPLY MIXER2,CHILLED WATER LOOP CHILLED WATER LOOP2,Supply,2
     Plant Loop Connector Branches,1,Mixer,CHILLED WATER LOOP CHW SUPPLY MIXER2,CHILLED WATER LOOP CHW SUPPLY BYPASS BRANCH2,CHILLED WATER LOOP CHW SUPPLY OUTLET BRANCH2,CHILLED WATER LOOP CHILLED WATER LOOP2,Supply
     Plant Loop Connector Nodes,   1,Mixer,CHILLED WATER LOOP CHW SUPPLY MIXER2,CHILLED WATER LOOP CHW SUPPLY BYPASS OUTLET2,CHILLED WATER LOOP CHW SUPPLY OUTLET PIPE INLET2,CHILLED WATER LOOP CHILLED WATER LOOP2,Supply
     Plant Loop Connector Branches,2,Mixer,CHILLED WATER LOOP CHW SUPPLY MIXER2,MAIN CHILLER CHW BRANCH2,CHILLED WATER LOOP CHW SUPPLY OUTLET BRANCH2,CHILLED WATER LOOP CHILLED WATER LOOP2,Supply
     Plant Loop Connector Nodes,   2,Mixer,CHILLED WATER LOOP CHW SUPPLY MIXER2,PURCHASED COOLING OUTLET NODE2,CHILLED WATER LOOP CHW SUPPLY OUTLET PIPE INLET2,CHILLED WATER LOOP CHILLED WATER LOOP2,Supply
 Plant Loop Supply Connection,CHILLED WATER LOOP CHILLED WATER LOOP2,CHILLED WATER LOOP CHW SUPPLY OUTLET2,CHILLED WATER LOOP CHW DEMAND INLET2
 Plant Loop Return Connection,CHILLED WATER LOOP CHILLED WATER LOOP2,CHILLED WATER LOOP CHW DEMAND OUTLET2,CHILLED WATER LOOP CHW SUPPLY INLET2
! ===============================================================
! <# Condenser Loops>,<Number of Condenser Loops>
 #Condenser Loops,0
! <Condenser Loop>,<Condenser Loop Name>,<Loop Type>,<Inlet Node Name>,<Outlet Node Name>,<Branch List>,<Connector List>
! <Condenser Loop Connector>,<Connector Type>,<Connector Name>,<Loop Name>,<Loop Type>,<Number of Inlets/Outlets>
! <Condenser Loop Connector Branches>,<Connector Node Count>,<Connector Type>,<Connector Name>,<Inlet Branch>,<Outlet Branch>,<Loop Name>,<Loop Type>
! <Condenser Loop Connector Nodes>,<Connector Node Count>,<Connector Type>,<Connector Name>,<Inlet Node>,<Outlet Node>,<Loop Name>,<Loop Type>
! <Condenser Loop Supply Connection>,<Condenser Loop Name>,<Supply Side Outlet Node Name>,<Demand Side Inlet Node Name>
! <Condenser Loop Return Connection>,<Condenser Loop Name>,<Demand Side Outlet Node Name>,<Supply Side Inlet Node Name>
! ===============================================================
! <# Controlled Zones>,<Number of Controlled Zones>
 #Controlled Zones,15
! <Controlled Zone>,<Controlled Zone Name>,<Equip List Name>,<Control List Name>,<Zone Node Name>,<# Inlet Nodes>,<# Exhaust Nodes>,<# Return Nodes>
! <Controlled Zone Inlet>,<Inlet Node Count>,<Controlled Zone Name>,<Supply Air Inlet Node Name>,<SD Sys:Cooling/Heating [DD:Cooling] Inlet Node Name>,<DD Sys:Heating Inlet Node Name>
! <Controlled Zone Exhaust>,<Exhaust Node Count>,<Controlled Zone Name>,<Exhaust Air Node Name>
 Controlled Zone,CORE_BOTTOM,CORE_BOT_EQUIP,,CORE_BOT_ZONENODE,1,0,1
   Controlled Zone Inlet,1,CORE_BOTTOM,CORE_BOT_DOAS SUPPLY INLET,CORE_BOT_DOAS ZONE EQUIP INLET,N/A
   Controlled Zone Return,1,CORE_BOTTOM,CORE_BOT_OUTLET_ZONENODE
 Controlled Zone,CORE_MID,CORE_MID_EQUIP,,CORE_MID_ZONENODE,1,0,1
   Controlled Zone Inlet,1,CORE_MID,CORE_MID_DOAS SUPPLY INLET,CORE_MID_DOAS ZONE EQUIP INLET,N/A
   Controlled Zone Return,1,CORE_MID,CORE_MID_OUTLET_ZONENODE
 Controlled Zone,CORE_TOP,CORE_TOP_EQUIP,,CORE_TOP_ZONENODE,1,0,1
   Controlled Zone Inlet,1,CORE_TOP,CORE_TOP_DOAS SUPPLY INLET,CORE_TOP_DOAS ZONE EQUIP INLET,N/A
[...]
 Non-Parent Node Connection,DOAS HEATING COIL HW OUTLET,CONNECTOR:MIXER,HOT WATER LOOP HW DEMAND MIXER,Inlet,1
 Non-Parent Node Connection,HOT WATER LOOP HW PUMP OUTLET,CONNECTOR:SPLITTER,HOT WATER LOOP HW SUPPLY SPLITTER,Inlet,1
 Non-Parent Node Connection,PURCHASED HEAT INLET NODE,CONNECTOR:SPLITTER,HOT WATER LOOP HW SUPPLY SPLITTER,Outlet,1
 Non-Parent Node Connection,HOT WATER LOOP HW SUPPLY BYPASS INLET,CONNECTOR:SPLITTER,HOT WATER LOOP HW SUPPLY SPLITTER,Outlet,1
 Non-Parent Node Connection,HOT WATER LOOP HW SUPPLY OUTLET PIPE INLET,CONNECTOR:MIXER,HOT WATER LOOP HW SUPPLY MIXER,Outlet,1
 Non-Parent Node Connection,PURCHASED HEAT OUTLET NODE,CONNECTOR:MIXER,HOT WATER LOOP HW SUPPLY MIXER,Inlet,1
 Non-Parent Node Connection,HOT WATER LOOP HW SUPPLY BYPASS OUTLET,CONNECTOR:MIXER,HOT WATER LOOP HW SUPPLY MIXER,Inlet,1
 Non-Parent Node Connection,CHILLED WATER LOOP CHW DEMAND INLET PIPE OUTLET2,CONNECTOR:SPLITTER,CHILLED WATER LOOP CHW DEMAND SPLITTER2,Inlet,1
 Non-Parent Node Connection,CHILLED WATER LOOP CHW DEMAND BYPASS INLET2,CONNECTOR:SPLITTER,CHILLED WATER LOOP CHW DEMAND SPLITTER2,Outlet,1
 Non-Parent Node Connection,PERI1_TOP_LOTEMP_CHW_INLET,CONNECTOR:SPLITTER,CHILLED WATER LOOP CHW DEMAND SPLITTER2,Outlet,1
 Non-Parent Node Connection,CHILLED WATER LOOP CHW DEMAND OUTLET PIPE INLET2,CONNECTOR:MIXER,CHILLED WATER LOOP CHW DEMAND MIXER2,Outlet,1
 Non-Parent Node Connection,CHILLED WATER LOOP CHW DEMAND BYPASS OUTLET2,CONNECTOR:MIXER,CHILLED WATER LOOP CHW DEMAND MIXER2,Inlet,1
 Non-Parent Node Connection,PERI1_TOP_LOTEMP_CHW_OUTLET,CONNECTOR:MIXER,CHILLED WATER LOOP CHW DEMAND MIXER2,Inlet,1
 Non-Parent Node Connection,CHILLED WATER LOOP CHW PUMP OUTLET2,CONNECTOR:SPLITTER,CHILLED WATER LOOP CHW SUPPLY SPLITTER2,Inlet,1
 Non-Parent Node Connection,CHILLED WATER LOOP CHW SUPPLY BYPASS INLET2,CONNECTOR:SPLITTER,CHILLED WATER LOOP CHW SUPPLY SPLITTER2,Outlet,1
 Non-Parent Node Connection,PURCHASED COOLING INLET NODE2,CONNECTOR:SPLITTER,CHILLED WATER LOOP CHW SUPPLY SPLITTER2,Outlet,1
 Non-Parent Node Connection,CHILLED WATER LOOP CHW SUPPLY OUTLET PIPE INLET2,CONNECTOR:MIXER,CHILLED WATER LOOP CHW SUPPLY MIXER2,Outlet,1
 Non-Parent Node Connection,CHILLED WATER LOOP CHW SUPPLY BYPASS OUTLET2,CONNECTOR:MIXER,CHILLED WATER LOOP CHW SUPPLY MIXER2,Inlet,1
 Non-Parent Node Connection,PURCHASED COOLING OUTLET NODE2,CONNECTOR:MIXER,CHILLED WATER LOOP CHW SUPPLY MIXER2,Inlet,1
 Non-Parent Node Connection,DOAS SUPPLY PATH INLET,AIRLOOPHVAC:ZONESPLITTER,DOAS ZONE SPLITTER,Inlet,1
 Non-Parent Node Connection,CORE_BOT_DOAS ZONE EQUIP INLET,AIRLOOPHVAC:ZONESPLITTER,DOAS ZONE SPLITTER,Outlet,1
 Non-Parent Node Connection,CORE_MID_DOAS ZONE EQUIP INLET,AIRLOOPHVAC:ZONESPLITTER,DOAS ZONE SPLITTER,Outlet,1
 Non-Parent Node Connection,CORE_TOP_DOAS ZONE EQUIP INLET,AIRLOOPHVAC:ZONESPLITTER,DOAS ZONE SPLITTER,Outlet,1
 Non-Parent Node Connection,PERI1_BOT_DOAS ZONE EQUIP INLET,AIRLOOPHVAC:ZONESPLITTER,DOAS ZONE SPLITTER,Outlet,1
 Non-Parent Node Connection,PERI2_BOT_DOAS ZONE EQUIP INLET,AIRLOOPHVAC:ZONESPLITTER,DOAS ZONE SPLITTER,Outlet,1
 Non-Parent Node Connection,PERI3_BOT_DOAS ZONE EQUIP INLET,AIRLOOPHVAC:ZONESPLITTER,DOAS ZONE SPLITTER,Outlet,1
 Non-Parent Node Connection,PERI4_BOT_DOAS ZONE EQUIP INLET,AIRLOOPHVAC:ZONESPLITTER,DOAS ZONE SPLITTER,Outlet,1
 Non-Parent Node Connection,PERI1_MID_DOAS ZONE EQUIP INLET,AIRLOOPHVAC:ZONESPLITTER,DOAS ZONE SPLITTER,Outlet,1
 Non-Parent Node Connection,PERI2_MID_DOAS ZONE EQUIP INLET,AIRLOOPHVAC:ZONESPLITTER,DOAS ZONE SPLITTER,Outlet,1
 Non-Parent Node Connection,PERI3_MID_DOAS ZONE EQUIP INLET,AIRLOOPHVAC:ZONESPLITTER,DOAS ZONE SPLITTER,Outlet,1
 Non-Parent Node Connection,PERI4_MID_DOAS ZONE EQUIP INLET,AIRLOOPHVAC:ZONESPLITTER,DOAS ZONE SPLITTER,Outlet,1
 Non-Parent Node Connection,PERI1_TOP_DOAS ZONE EQUIP INLET,AIRLOOPHVAC:ZONESPLITTER,DOAS ZONE SPLITTER,Outlet,1
 Non-Parent Node Connection,PERI2_TOP_DOAS ZONE EQUIP INLET,AIRLOOPHVAC:ZONESPLITTER,DOAS ZONE SPLITTER,Outlet,1
 Non-Parent Node Connection,PERI3_TOP_DOAS ZONE EQUIP INLET,AIRLOOPHVAC:ZONESPLITTER,DOAS ZONE SPLITTER,Outlet,1
 Non-Parent Node Connection,CORE_BOT_DOAS SUPPLY INLET,AIRTERMINAL:SINGLEDUCT:VAV:NOREHEAT,CORE_BOT_DOAS_AIRTERMINAL,Outlet,1
 Non-Parent Node Connection,CORE_BOT_DOAS ZONE EQUIP INLET,AIRTERMINAL:SINGLEDUCT:VAV:NOREHEAT,CORE_BOT_DOAS_AIRTERMINAL,Inlet,1
 Non-Parent Node Connection,CORE_TOP_DOAS SUPPLY INLET,AIRTERMINAL:SINGLEDUCT:VAV:NOREHEAT,CORE_TOP_DOAS_AIRTERMINAL,Outlet,1
 Non-Parent Node Connection,CORE_TOP_DOAS ZONE EQUIP INLET,AIRTERMINAL:SINGLEDUCT:VAV:NOREHEAT,CORE_TOP_DOAS_AIRTERMINAL,Inlet,1
 Non-Parent Node Connection,CORE_MID_DOAS SUPPLY INLET,AIRTERMINAL:SINGLEDUCT:VAV:NOREHEAT,CORE_MID_DOAS_AIRTERMINAL,Outlet,1
 Non-Parent Node Connection,CORE_MID_DOAS ZONE EQUIP INLET,AIRTERMINAL:SINGLEDUCT:VAV:NOREHEAT,CORE_MID_DOAS_AIRTERMINAL,Inlet,1
 Non-Parent Node Connection,PERI1_BOT_DOAS SUPPLY INLET,AIRTERMINAL:SINGLEDUCT:VAV:NOREHEAT,PERI1_BOT_DOAS_AIRTERMINAL,Outlet,1
 Non-Parent Node Connection,PERI1_BOT_DOAS ZONE EQUIP INLET,AIRTERMINAL:SINGLEDUCT:VAV:NOREHEAT,PERI1_BOT_DOAS_AIRTERMINAL,Inlet,1
 Non-Parent Node Connection,PERI2_BOT_DOAS SUPPLY INLET,AIRTERMINAL:SINGLEDUCT:VAV:NOREHEAT,PERI2_BOT_DOAS_AIRTERMINAL,Outlet,1
 Non-Parent Node Connection,PERI2_BOT_DOAS ZONE EQUIP INLET,AIRTERMINAL:SINGLEDUCT:VAV:NOREHEAT,PERI2_BOT_DOAS_AIRTERMINAL,Inlet,1
 Non-Parent Node Connection,PERI3_BOT_DOAS SUPPLY INLET,AIRTERMINAL:SINGLEDUCT:VAV:NOREHEAT,PERI3_BOT_DOAS_AIRTERMINAL,Outlet,1
 Non-Parent Node Connection,PERI3_BOT_DOAS ZONE EQUIP INLET,AIRTERMINAL:SINGLEDUCT:VAV:NOREHEAT,PERI3_BOT_DOAS_AIRTERMINAL,Inlet,1
 Non-Parent Node Connection,PERI4_BOT_DOAS SUPPLY INLET,AIRTERMINAL:SINGLEDUCT:VAV:NOREHEAT,PERI4_BOT_DOAS_AIRTERMINAL,Outlet,1
 Non-Parent Node Connection,PERI4_BOT_DOAS ZONE EQUIP INLET,AIRTERMINAL:SINGLEDUCT:VAV:NOREHEAT,PERI4_BOT_DOAS_AIRTERMINAL,Inlet,1
 Non-Parent Node Connection,PERI1_MID_DOAS SUPPLY INLET,AIRTERMINAL:SINGLEDUCT:VAV:NOREHEAT,PERI1_MID_DOAS_AIRTERMINAL,Outlet,1
 Non-Parent Node Connection,PERI1_MID_DOAS ZONE EQUIP INLET,AIRTERMINAL:SINGLEDUCT:VAV:NOREHEAT,PERI1_MID_DOAS_AIRTERMINAL,Inlet,1
 Non-Parent Node Connection,PERI2_MID_DOAS SUPPLY INLET,AIRTERMINAL:SINGLEDUCT:VAV:NOREHEAT,PERI2_MID_DOAS_AIRTERMINAL,Outlet,1
 Non-Parent Node Connection,PERI2_MID_DOAS ZONE EQUIP INLET,AIRTERMINAL:SINGLEDUCT:VAV:NOREHEAT,PERI2_MID_DOAS_AIRTERMINAL,Inlet,1
 Non-Parent Node Connection,PERI3_MID_DOAS SUPPLY INLET,AIRTERMINAL:SINGLEDUCT:VAV:NOREHEAT,PERI3_MID_DOAS_AIRTERMINAL,Outlet,1
 Non-Parent Node Connection,PERI3_MID_DOAS ZONE EQUIP INLET,AIRTERMINAL:SINGLEDUCT:VAV:NOREHEAT,PERI3_MID_DOAS_AIRTERMINAL,Inlet,1
 Non-Parent Node Connection,PERI4_MID_DOAS SUPPLY INLET,AIRTERMINAL:SINGLEDUCT:VAV:NOREHEAT,PERI4_MID_DOAS_AIRTERMINAL,Outlet,1
 Non-Parent Node Connection,PERI4_MID_DOAS ZONE EQUIP INLET,AIRTERMINAL:SINGLEDUCT:VAV:NOREHEAT,PERI4_MID_DOAS_AIRTERMINAL,Inlet,1
 Non-Parent Node Connection,PERI1_TOP_DOAS SUPPLY INLET,AIRTERMINAL:SINGLEDUCT:VAV:NOREHEAT,PERI1_TOP_DOAS_AIRTERMINAL,Outlet,1
 Non-Parent Node Connection,PERI1_TOP_DOAS ZONE EQUIP INLET,AIRTERMINAL:SINGLEDUCT:VAV:NOREHEAT,PERI1_TOP_DOAS_AIRTERMINAL,Inlet,1
 Non-Parent Node Connection,PERI2_TOP_DOAS SUPPLY INLET,AIRTERMINAL:SINGLEDUCT:VAV:NOREHEAT,PERI2_TOP_DOAS_AIRTERMINAL,Outlet,1
 Non-Parent Node Connection,PERI2_TOP_DOAS ZONE EQUIP INLET,AIRTERMINAL:SINGLEDUCT:VAV:NOREHEAT,PERI2_TOP_DOAS_AIRTERMINAL,Inlet,1
 Non-Parent Node Connection,PERI3_TOP_DOAS SUPPLY INLET,AIRTERMINAL:SINGLEDUCT:VAV:NOREHEAT,PERI3_TOP_DOAS_AIRTERMINAL,Outlet,1
 Non-Parent Node Connection,PERI3_TOP_DOAS ZONE EQUIP INLET,AIRTERMINAL:SINGLEDUCT:VAV:NOREHEAT,PERI3_TOP_DOAS_AIRTERMINAL,Inlet,1
 Non-Parent Node Connection,CORE_BOT RADIANT WATER INLET NODE,ZONEHVAC:LOWTEMPERATURERADIANT:CONSTANTFLOW,CORE_BOT_LOTEMP,Inlet,1
 Non-Parent Node Connection,CORE_BOT RADIANT WATER OUTLET NODE,ZONEHVAC:LOWTEMPERATURERADIANT:CONSTANTFLOW,CORE_BOT_LOTEMP,Outlet,1
 Non-Parent Node Connection,CORE_BOT_LOTEMP_CHW_INLET,ZONEHVAC:LOWTEMPERATURERADIANT:CONSTANTFLOW,CORE_BOT_LOTEMP,Inlet,2
 Non-Parent Node Connection,CORE_BOT_LOTEMP_CHW_OUTLET,ZONEHVAC:LOWTEMPERATURERADIANT:CONSTANTFLOW,CORE_BOT_LOTEMP,Outlet,2
 Non-Parent Node Connection,CORE_MID RADIANT WATER INLET NODE,ZONEHVAC:LOWTEMPERATURERADIANT:CONSTANTFLOW,CORE_MID_LOTEMP,Inlet,1
 Non-Parent Node Connection,CORE_MID RADIANT WATER OUTLET NODE,ZONEHVAC:LOWTEMPERATURERADIANT:CONSTANTFLOW,CORE_MID_LOTEMP,Outlet,1
 Non-Parent Node Connection,CORE_MID_LOTEMP_CHW_INLET,ZONEHVAC:LOWTEMPERATURERADIANT:CONSTANTFLOW,CORE_MID_LOTEMP,Inlet,2
 Non-Parent Node Connection,CORE_MID_LOTEMP_CHW_OUTLET,ZONEHVAC:LOWTEMPERATURERADIANT:CONSTANTFLOW,CORE_MID_LOTEMP,Outlet,2
 Non-Parent Node Connection,CORE_TOP RADIANT WATER INLET NODE,ZONEHVAC:LOWTEMPERATURERADIANT:CONSTANTFLOW,CORE_TOP_LOTEMP,Inlet,1
 Non-Parent Node Connection,CORE_TOP RADIANT WATER OUTLET NODE,ZONEHVAC:LOWTEMPERATURERADIANT:CONSTANTFLOW,CORE_TOP_LOTEMP,Outlet,1
 Non-Parent Node Connection,CORE_TOP_LOTEMP_CHW_INLET,ZONEHVAC:LOWTEMPERATURERADIANT:CONSTANTFLOW,CORE_TOP_LOTEMP,Inlet,2
 Non-Parent Node Connection,CORE_TOP_LOTEMP_CHW_OUTLET,ZONEHVAC:LOWTEMPERATURERADIANT:CONSTANTFLOW,CORE_TOP_LOTEMP,Outlet,2
 Non-Parent Node Connection,PERI1_TOP RADIANT WATER INLET NODE,ZONEHVAC:LOWTEMPERATURERADIANT:CONSTANTFLOW,PERI1_TOP_LOTEMP,Inlet,1
 Non-Parent Node Connection,PERI1_TOP RADIANT WATER OUTLET NODE,ZONEHVAC:LOWTEMPERATURERADIANT:CONSTANTFLOW,PERI1_TOP_LOTEMP,Outlet,1
 Non-Parent Node Connection,PERI1_TOP_LOTEMP_CHW_INLET,ZONEHVAC:LOWTEMPERATURERADIANT:CONSTANTFLOW,PERI1_TOP_LOTEMP,Inlet,2
 Non-Parent Node Connection,PERI1_TOP_LOTEMP_CHW_OUTLET,ZONEHVAC:LOWTEMPERATURERADIANT:CONSTANTFLOW,PERI1_TOP_LOTEMP,Outlet,2
 Non-Parent Node Connection,PERI2_TOP RADIANT WATER INLET NODE,ZONEHVAC:LOWTEMPERATURERADIANT:CONSTANTFLOW,PERI2_TOP_LOTEMP,Inlet,1
 Non-Parent Node Connection,PERI2_TOP RADIANT WATER OUTLET NODE,ZONEHVAC:LOWTEMPERATURERADIANT:CONSTANTFLOW,PERI2_TOP_LOTEMP,Outlet,1
 Non-Parent Node Connection,PERI2_TOP_LOTEMP_CHW_INLET,ZONEHVAC:LOWTEMPERATURERADIANT:CONSTANTFLOW,PERI2_TOP_LOTEMP,Inlet,2
 Non-Parent Node Connection,PERI2_TOP_LOTEMP_CHW_OUTLET,ZONEHVAC:LOWTEMPERATURERADIANT:CONSTANTFLOW,PERI2_TOP_LOTEMP,Outlet,2
 Non-Parent Node Connection,PERI3_TOP RADIANT WATER INLET NODE,ZONEHVAC:LOWTEMPERATURERADIANT:CONSTANTFLOW,PERI3_TOP_LOTEMP,Inlet,1
 Non-Parent Node Connection,PERI3_TOP RADIANT WATER OUTLET NODE,ZONEHVAC:LOWTEMPERATURERADIANT:CONSTANTFLOW,PERI3_TOP_LOTEMP,Outlet,1
 Non-Parent Node Connection,PERI3_TOP_LOTEMP_CHW_INLET,ZONEHVAC:LOWTEMPERATURERADIANT:CONSTANTFLOW,PERI3_TOP_LOTEMP,Inlet,2
 Non-Parent Node Connection,PERI3_TOP_LOTEMP_CHW_OUTLET,ZONEHVAC:LOWTEMPERATURERADIANT:CONSTANTFLOW,PERI3_TOP_LOTEMP,Outlet,2
 Non-Parent Node Connection,PERI4_TOP RADIANT WATER INLET NODE,ZONEHVAC:LOWTEMPERATURERADIANT:CONSTANTFLOW,PERI4_TOP_LOTEMP,Inlet,1
 Non-Parent Node Connection,PERI4_TOP RADIANT WATER OUTLET NODE,ZONEHVAC:LOWTEMPERATURERADIANT:CONSTANTFLOW,PERI4_TOP_LOTEMP,Outlet,1
 Non-Parent Node Connection,PERI4_TOP_LOTEMP_CHW_INLET,ZONEHVAC:LOWTEMPERATURERADIANT:CONSTANTFLOW,PERI4_TOP_LOTEMP,Inlet,2
 Non-Parent Node Connection,PERI4_TOP_LOTEMP_CHW_OUTLET,ZONEHVAC:LOWTEMPERATURERADIANT:CONSTANTFLOW,PERI4_TOP_LOTEMP,Outlet,2
 Non-Parent Node Connection,PERI1_MID RADIANT WATER INLET NODE,ZONEHVAC:LOWTEMPERATURERADIANT:CONSTANTFLOW,PERI1_MID_LOTEMP,Inlet,1
 Non-Parent Node Connection,PERI1_MID RADIANT WATER OUTLET NODE,ZONEHVAC:LOWTEMPERATURERADIANT:CONSTANTFLOW,PERI1_MID_LOTEMP,Outlet,1
 Non-Parent Node Connection,PERI1_MID_LOTEMP_CHW_INLET,ZONEHVAC:LOWTEMPERATURERADIANT:CONSTANTFLOW,PERI1_MID_LOTEMP,Inlet,2
 Non-Parent Node Connection,PERI1_MID_LOTEMP_CHW_OUTLET,ZONEHVAC:LOWTEMPERATURERADIANT:CONSTANTFLOW,PERI1_MID_LOTEMP,Outlet,2
 Non-Parent Node Connection,PERI2_MID RADIANT WATER INLET NODE,ZONEHVAC:LOWTEMPERATURERADIANT:CONSTANTFLOW,PERI2_MID_LOTEMP,Inlet,1
 Non-Parent Node Connection,PERI2_MID RADIANT WATER OUTLET NODE,ZONEHVAC:LOWTEMPERATURERADIANT:CONSTANTFLOW,PERI2_MID_LOTEMP,Outlet,1
 Non-Parent Node Connection,PERI2_MID_LOTEMP_CHW_INLET,ZONEHVAC:LOWTEMPERATURERADIANT:CONSTANTFLOW,PERI2_MID_LOTEMP,Inlet,2
 Non-Parent Node Connection,PERI2_MID_LOTEMP_CHW_OUTLET,ZONEHVAC:LOWTEMPERATURERADIANT:CONSTANTFLOW,PERI2_MID_LOTEMP,Outlet,2
 Non-Parent Node Connection,PERI3_MID RADIANT WATER INLET NODE,ZONEHVAC:LOWTEMPERATURERADIANT:CONSTANTFLOW,PERI3_MID_LOTEMP,Inlet,1
 Non-Parent Node Connection,PERI3_MID RADIANT WATER OUTLET NODE,ZONEHVAC:LOWTEMPERATURERADIANT:CONSTANTFLOW,PERI3_MID_LOTEMP,Outlet,1
 Non-Parent Node Connection,PERI3_MID_LOTEMP_CHW_INLET,ZONEHVAC:LOWTEMPERATURERADIANT:CONSTANTFLOW,PERI3_MID_LOTEMP,Inlet,2
 Non-Parent Node Connection,PERI3_MID_LOTEMP_CHW_OUTLET,ZONEHVAC:LOWTEMPERATURERADIANT:CONSTANTFLOW,PERI3_MID_LOTEMP,Outlet,2
 Non-Parent Node Connection,PERI4_MID RADIANT WATER INLET NODE,ZONEHVAC:LOWTEMPERATURERADIANT:CONSTANTFLOW,PERI4_MID_LOTEMP,Inlet,1
 Non-Parent Node Connection,PERI4_MID RADIANT WATER OUTLET NODE,ZONEHVAC:LOWTEMPERATURERADIANT:CONSTANTFLOW,PERI4_MID_LOTEMP,Outlet,1
 Non-Parent Node Connection,PERI4_MID_LOTEMP_CHW_INLET,ZONEHVAC:LOWTEMPERATURERADIANT:CONSTANTFLOW,PERI4_MID_LOTEMP,Inlet,2
 Non-Parent Node Connection,PERI4_MID_LOTEMP_CHW_OUTLET,ZONEHVAC:LOWTEMPERATURERADIANT:CONSTANTFLOW,PERI4_MID_LOTEMP,Outlet,2
 Non-Parent Node Connection,PERI1_BOT RADIANT WATER INLET NODE,ZONEHVAC:LOWTEMPERATURERADIANT:CONSTANTFLOW,PERI1_BOT_LOTEMP,Inlet,1
 Non-Parent Node Connection,PERI1_BOT RADIANT WATER OUTLET NODE,ZONEHVAC:LOWTEMPERATURERADIANT:CONSTANTFLOW,PERI1_BOT_LOTEMP,Outlet,1
 Non-Parent Node Connection,PERI1_BOT_LOTEMP_CHW_INLET,ZONEHVAC:LOWTEMPERATURERADIANT:CONSTANTFLOW,PERI1_BOT_LOTEMP,Inlet,2
 Non-Parent Node Connection,PERI1_BOT_LOTEMP_CHW_OUTLET,ZONEHVAC:LOWTEMPERATURERADIANT:CONSTANTFLOW,PERI1_BOT_LOTEMP,Outlet,2
 Non-Parent Node Connection,PERI2_BOT RADIANT WATER INLET NODE,ZONEHVAC:LOWTEMPERATURERADIANT:CONSTANTFLOW,PERI2_BOT_LOTEMP,Inlet,1
 Non-Parent Node Connection,PERI2_BOT RADIANT WATER OUTLET NODE,ZONEHVAC:LOWTEMPERATURERADIANT:CONSTANTFLOW,PERI2_BOT_LOTEMP,Outlet,1
 Non-Parent Node Connection,PERI2_BOT_LOTEMP_CHW_INLET,ZONEHVAC:LOWTEMPERATURERADIANT:CONSTANTFLOW,PERI2_BOT_LOTEMP,Inlet,2
 Non-Parent Node Connection,PERI2_BOT_LOTEMP_CHW_OUTLET,ZONEHVAC:LOWTEMPERATURERADIANT:CONSTANTFLOW,PERI2_BOT_LOTEMP,Outlet,2
 Non-Parent Node Connection,PERI3_BOT RADIANT WATER INLET NODE,ZONEHVAC:LOWTEMPERATURERADIANT:CONSTANTFLOW,PERI3_BOT_LOTEMP,Inlet,1
 Non-Parent Node Connection,PERI3_BOT RADIANT WATER OUTLET NODE,ZONEHVAC:LOWTEMPERATURERADIANT:CONSTANTFLOW,PERI3_BOT_LOTEMP,Outlet,1
 Non-Parent Node Connection,PERI3_BOT_LOTEMP_CHW_INLET,ZONEHVAC:LOWTEMPERATURERADIANT:CONSTANTFLOW,PERI3_BOT_LOTEMP,Inlet,2
 Non-Parent Node Connection,PERI3_BOT_LOTEMP_CHW_OUTLET,ZONEHVAC:LOWTEMPERATURERADIANT:CONSTANTFLOW,PERI3_BOT_LOTEMP,Outlet,2
 Non-Parent Node Connection,PERI4_BOT RADIANT WATER INLET NODE,ZONEHVAC:LOWTEMPERATURERADIANT:CONSTANTFLOW,PERI4_BOT_LOTEMP,Inlet,1
 Non-Parent Node Connection,PERI4_BOT RADIANT WATER OUTLET NODE,ZONEHVAC:LOWTEMPERATURERADIANT:CONSTANTFLOW,PERI4_BOT_LOTEMP,Outlet,1
 Non-Parent Node Connection,PERI4_BOT_LOTEMP_CHW_INLET,ZONEHVAC:LOWTEMPERATURERADIANT:CONSTANTFLOW,PERI4_BOT_LOTEMP,Inlet,2
 Non-Parent Node Connection,PERI4_BOT_LOTEMP_CHW_OUTLET,ZONEHVAC:LOWTEMPERATURERADIANT:CONSTANTFLOW,PERI4_BOT_LOTEMP,Outlet,2
 Non-Parent Node Connection,DOAS RETURN AIR OUTLET,AIRLOOPHVAC:ZONEMIXER,DOAS ZONE MIXER,Outlet,1
 Non-Parent Node Connection,CORE_BOT_OUTLET_ZONENODE,AIRLOOPHVAC:ZONEMIXER,DOAS ZONE MIXER,Inlet,1
 Non-Parent Node Connection,CORE_MID_OUTLET_ZONENODE,AIRLOOPHVAC:ZONEMIXER,DOAS ZONE MIXER,Inlet,1
 Non-Parent Node Connection,CORE_TOP_OUTLET_ZONENODE,AIRLOOPHVAC:ZONEMIXER,DOAS ZONE MIXER,Inlet,1
 Non-Parent Node Connection,PERI1_BOT_OUTLET_ZONENODE,AIRLOOPHVAC:ZONEMIXER,DOAS ZONE MIXER,Inlet,1
 Non-Parent Node Connection,PERI2_BOT_OUTLET_ZONENODE,AIRLOOPHVAC:ZONEMIXER,DOAS ZONE MIXER,Inlet,1
 Non-Parent Node Connection,PERI3_BOT_OUTLET_ZONENODE,AIRLOOPHVAC:ZONEMIXER,DOAS ZONE MIXER,Inlet,1
 Non-Parent Node Connection,PERI4_BOT_OUTLET_ZONENODE,AIRLOOPHVAC:ZONEMIXER,DOAS ZONE MIXER,Inlet,1
 Non-Parent Node Connection,PERI1_MID_OUTLET_ZONENODE,AIRLOOPHVAC:ZONEMIXER,DOAS ZONE MIXER,Inlet,1
 Non-Parent Node Connection,PERI2_MID_OUTLET_ZONENODE,AIRLOOPHVAC:ZONEMIXER,DOAS ZONE MIXER,Inlet,1
 Non-Parent Node Connection,PERI3_MID_OUTLET_ZONENODE,AIRLOOPHVAC:ZONEMIXER,DOAS ZONE MIXER,Inlet,1
 Non-Parent Node Connection,PERI4_MID_OUTLET_ZONENODE,AIRLOOPHVAC:ZONEMIXER,DOAS ZONE MIXER,Inlet,1
 Non-Parent Node Connection,PERI1_TOP_OUTLET_ZONENODE,AIRLOOPHVAC:ZONEMIXER,DOAS ZONE MIXER,Inlet,1
 Non-Parent Node Connection,PERI2_TOP_OUTLET_ZONENODE,AIRLOOPHVAC:ZONEMIXER,DOAS ZONE MIXER,Inlet,1
 Non-Parent Node Connection,PERI3_TOP_OUTLET_ZONENODE,AIRLOOPHVAC:ZONEMIXER,DOAS ZONE MIXER,Inlet,1
 Non-Parent Node Connection,DOAS MIXED AIR OUTLET,OUTDOORAIR:MIXER,DOAS OA MIXING BOX,Outlet,1
 Non-Parent Node Connection,DOAS OUTDOOR AIR INLET,OUTDOORAIR:MIXER,DOAS OA MIXING BOX,Inlet,1
 Non-Parent Node Connection,DOAS RELIEF AIR OUTLET,OUTDOORAIR:MIXER,DOAS OA MIXING BOX,ReliefAir,1
 Non-Parent Node Connection,DOAS AIR LOOP INLET,OUTDOORAIR:MIXER,DOAS OA MIXING BOX,Inlet,1
 Non-Parent Node Connection,DOAS HEATING COIL HW INLET,COIL:HEATING:WATER,DOAS HEATING COIL,Inlet,2
 Non-Parent Node Connection,DOAS HEATING COIL HW OUTLET,COIL:HEATING:WATER,DOAS HEATING COIL,Outlet,2
 Non-Parent Node Connection,DOAS COOLING COIL OUTLET,COIL:HEATING:WATER,DOAS HEATING COIL,Inlet,1
 Non-Parent Node Connection,DOAS HEATING COIL OUTLET,COIL:HEATING:WATER,DOAS HEATING COIL,Outlet,1
 Non-Parent Node Connection,DOAS COOLING COIL CHW INLET,COIL:COOLING:WATER,DOAS COOLING COIL,Inlet,2
 Non-Parent Node Connection,DOAS COOLING COIL CHW OUTLET,COIL:COOLING:WATER,DOAS COOLING COIL,Outlet,2
 Non-Parent Node Connection,DOAS MIXED AIR OUTLET,COIL:COOLING:WATER,DOAS COOLING COIL,Inlet,1
 Non-Parent Node Connection,DOAS COOLING COIL OUTLET,COIL:COOLING:WATER,DOAS COOLING COIL,Outlet,1
 Non-Parent Node Connection,DOAS COOLING COIL OUTLET,CONTROLLER:WATERCOIL,DOAS COOLING COIL CONTROLLER,Sensor,1
 Non-Parent Node Connection,DOAS COOLING COIL CHW INLET,CONTROLLER:WATERCOIL,DOAS COOLING COIL CONTROLLER,Actuator,1
 Non-Parent Node Connection,DOAS HEATING COIL OUTLET,CONTROLLER:WATERCOIL,DOAS HEATING COIL CONTROLLER,Sensor,1
 Non-Parent Node Connection,DOAS HEATING COIL HW INLET,CONTROLLER:WATERCOIL,DOAS HEATING COIL CONTROLLER,Actuator,1
 Non-Parent Node Connection,DOAS HEATING COIL OUTLET,FAN:VARIABLEVOLUME,DOAS SUPPLY FAN,Inlet,1
 Non-Parent Node Connection,DOAS SUPPLY FAN OUTLET,FAN:VARIABLEVOLUME,DOAS SUPPLY FAN,Outlet,1
 Non-Parent Node Connection,DOAS MIXED AIR OUTLET,CONTROLLER:OUTDOORAIR,DOAS OA CONTROLLER,Sensor,1
 Non-Parent Node Connection,DOAS OUTDOOR AIR INLET,CONTROLLER:OUTDOORAIR,DOAS OA CONTROLLER,Actuator,1
 Non-Parent Node Connection,DOAS RELIEF AIR OUTLET,CONTROLLER:OUTDOORAIR,DOAS OA CONTROLLER,Actuator,1
 Non-Parent Node Connection,DOAS AIR LOOP INLET,CONTROLLER:OUTDOORAIR,DOAS OA CONTROLLER,Sensor,1
 Non-Parent Node Connection,CHILLED WATER LOOP CHW SUPPLY INLET,PUMP:CONSTANTSPEED,CHILLED WATER LOOP CHW SUPPLY PUMP,Inlet,1
 Non-Parent Node Connection,CHILLED WATER LOOP CHW PUMP OUTLET,PUMP:CONSTANTSPEED,CHILLED WATER LOOP CHW SUPPLY PUMP,Outlet,1
 Non-Parent Node Connection,HOT WATER LOOP HW SUPPLY INLET,PUMP:CONSTANTSPEED,HOT WATER LOOP HW SUPPLY PUMP,Inlet,1
 Non-Parent Node Connection,HOT WATER LOOP HW PUMP OUTLET,PUMP:CONSTANTSPEED,HOT WATER LOOP HW SUPPLY PUMP,Outlet,1
 Non-Parent Node Connection,CHILLED WATER LOOP CHW SUPPLY INLET2,PUMP:CONSTANTSPEED,CHILLED WATER LOOP CHW SUPPLY PUMP2,Inlet,1
 Non-Parent Node Connection,CHILLED WATER LOOP CHW PUMP OUTLET2,PUMP:CONSTANTSPEED,CHILLED WATER LOOP CHW SUPPLY PUMP2,Outlet,1
