Program Version,EnergyPlus, Version 9.5.0-de239b2e5f, YMD=2021.07.30 02:30
! <Version>, Version ID
 Version, 9.5
! <Timesteps per Hour>, #TimeSteps, Minutes per TimeStep {minutes}
 Timesteps per Hour, 20,  3
! <System Convergence Limits>, Minimum System TimeStep {minutes}, Max HVAC Iterations, Minimum Plant Iterations, Maximum Plant Iterations
 System Convergence Limits, 1, 20, 2, 8
! <Simulation Control>, Do Zone Sizing, Do System Sizing, Do Plant Sizing, Do Design Days, Do Weather Simulation, Do HVAC Sizing Simulation
 Simulation Control, Yes, Yes, Yes, No, Yes, No
! <Performance Precision Tradeoffs>, Use Coil Direct Simulation, Zone Radiant Exchange Algorithm, Override Mode, Number of Timestep In Hour, Force Euler Method, Minimum Number of Warmup Days, Force Suppress All Begin Environment Resets, Minimum System Timestep, MaxZoneTempDiff, MaxAllowedDelTemp
 Performance Precision Tradeoffs, No, ScriptF, Normal, 20, No, 1, No, 1.0, 0.300, 2.0000E-003
! <Output Reporting Tolerances>, Tolerance for Time Heating Setpoint Not Met, Tolerance for Zone Cooling Setpoint Not Met Time
 Output Reporting Tolerances, 0.556, 0.556, 
! <Site:GroundTemperature:BuildingSurface>,Jan{C},Feb{C},Mar{C},Apr{C},May{C},Jun{C},Jul{C},Aug{C},Sep{C},Oct{C},Nov{C},Dec{C}
 Site:GroundTemperature:BuildingSurface,  20.93,  20.91,  20.89,  20.89,  20.89,  23.27,  23.65,  23.72,  23.75,  21.32,  21.02,  20.97
! <Site:GroundTemperature:FCfactorMethod>,Jan{C},Feb{C},Mar{C},Apr{C},May{C},Jun{C},Jul{C},Aug{C},Sep{C},Oct{C},Nov{C},Dec{C}
 Site:GroundTemperature:FCfactorMethod,  14.00,   7.30,   3.30,   1.20,  -0.20,   5.60,  10.90,  16.10,  21.70,  25.00,  24.80,  19.90
! <Site:GroundTemperature:Shallow>,Jan{C},Feb{C},Mar{C},Apr{C},May{C},Jun{C},Jul{C},Aug{C},Sep{C},Oct{C},Nov{C},Dec{C}
 Site:GroundTemperature:Shallow,  13.00,  13.00,  13.00,  13.00,  13.00,  13.00,  13.00,  13.00,  13.00,  13.00,  13.00,  13.00
! <Site:GroundTemperature:Deep>,Jan{C},Feb{C},Mar{C},Apr{C},May{C},Jun{C},Jul{C},Aug{C},Sep{C},Oct{C},Nov{C},Dec{C}
 Site:GroundTemperature:Deep,  16.00,  16.00,  16.00,  16.00,  16.00,  16.00,  16.00,  16.00,  16.00,  16.00,  16.00,  16.00
! <Site:GroundReflectance>,Jan{dimensionless},Feb{dimensionless},Mar{dimensionless},Apr{dimensionless},May{dimensionless},Jun{dimensionless},Jul{dimensionless},Aug{dimensionless},Sep{dimensionless},Oct{dimensionless},Nov{dimensionless},Dec{dimensionless}
 Site:GroundReflectance,  0.20,  0.20,  0.20,  0.20,  0.20,  0.20,  0.20,  0.20,  0.20,  0.20,  0.20,  0.20
! <Site:GroundReflectance:SnowModifier>, Normal, Daylighting {dimensionless}
 Site:GroundReflectance:SnowModifier,   1.000,   1.000
! <Site:GroundReflectance:Snow>,Jan{dimensionless},Feb{dimensionless},Mar{dimensionless},Apr{dimensionless},May{dimensionless},Jun{dimensionless},Jul{dimensionless},Aug{dimensionless},Sep{dimensionless},Oct{dimensionless},Nov{dimensionless},Dec{dimensionless}
 Site:GroundReflectance:Snow,  0.20,  0.20,  0.20,  0.20,  0.20,  0.20,  0.20,  0.20,  0.20,  0.20,  0.20,  0.20
! <Site:GroundReflectance:Snow:Daylighting>,Jan{dimensionless},Feb{dimensionless},Mar{dimensionless},Apr{dimensionless},May{dimensionless},Jun{dimensionless},Jul{dimensionless},Aug{dimensionless},Sep{dimensionless},Oct{dimensionless},Nov{dimensionless},Dec{dimensionless}
 Site:GroundReflectance:Snow:Daylighting,  0.20,  0.20,  0.20,  0.20,  0.20,  0.20,  0.20,  0.20,  0.20,  0.20,  0.20,  0.20
! <Environment:Weather Station>,Wind Sensor Height Above Ground {m},Wind Speed Profile Exponent {},Wind Speed Profile Boundary Layer Thickness {m},Air Temperature Sensor Height Above Ground {m},Wind Speed Modifier Coefficient-Internal,Temperature Modifier Coefficient-Internal
Environment:Weather Station,10.000,0.140,270.000,1.500,1.586,9.750E-003
! <Site:Location>, Location Name, Latitude {N+/S- Deg}, Longitude {E+/W- Deg},  Time Zone Number {GMT+/-}, Elevation {m},  Standard Pressure at Elevation {Pa}, Standard RhoAir at Elevation
Site:Location,Atlanta Hartsfield Intl Ap GA USA TMY3 WMO#=722190,33.63,-84.43,-5.00,308.00,97679,1.1610
! <Site Water Mains Temperature Information>,Calculation Method{},Water Mains Temperature Schedule Name{},Annual Average Outdoor Air Temperature{C},Maximum Difference In Monthly Average Outdoor Air Temperatures{deltaC},Fixed Default Water Mains Temperature{C}
Site Water Mains Temperature Information,Correlation,NA,12.47,25.20,NA
! <Building Information>, Building Name,North Axis {deg},Terrain,  Loads Convergence Tolerance Value,Temperature Convergence Tolerance Value,  Solar Distribution,Maximum Number of Warmup Days,Minimum Number of Warmup Days
 Building Information,OfficeMedium,0.000,City,4.00000E-002,0.20000,FullInteriorAndExterior,25,6
! <Inside Convection Algorithm>, Algorithm {Simple | TARP | CeilingDiffuser | AdaptiveConvectionAlgorithm}
Inside Convection Algorithm,TARP
! <Outside Convection Algorithm>, Algorithm {SimpleCombined | TARP | MoWitt | DOE-2 | AdaptiveConvectionAlgorithm}
Outside Convection Algorithm,TARP
! <Sky Radiance Distribution>, Value {Anisotropic}
Sky Radiance Distribution,Anisotropic
! <Zone Air Solution Algorithm>, Value {ThirdOrderBackwardDifference | AnalyticalSolution | EulerMethod}
 Zone Air Solution Algorithm, ThirdOrderBackwardDifference
! <Zone Air Carbon Dioxide Balance Simulation>, Simulation {Yes/No}, Carbon Dioxide Concentration
 Zone Air Carbon Dioxide Balance Simulation, No,N/A
! <Zone Air Generic Contaminant Balance Simulation>, Simulation {Yes/No}, Generic Contaminant Concentration
 Zone Air Generic Contaminant Balance Simulation, No,N/A
! <Zone Air Mass Flow Balance Simulation>, Enforce Mass Balance, Adjust Zone Mixing and Return {AdjustMixingOnly | AdjustReturnOnly | AdjustMixingThenReturn | AdjustReturnThenMixing | None}, Adjust Zone Infiltration {AddInfiltration | AdjustInfiltration | None}, Infiltration Zones {MixingSourceZonesOnly | AllZones}
 Zone Air Mass Flow Balance Simulation, No,N/A,N/A,N/A
! <HVACSystemRootFindingAlgorithm>, Value {RegulaFalsi | Bisection | BisectionThenRegulaFalsi | RegulaFalsiThenBisection}
 HVACSystemRootFindingAlgorithm, RegulaFalsi
! <Environment:Site Atmospheric Variation>,Wind Speed Profile Exponent {},Wind Speed Profile Boundary Layer Thickness {m},Air Temperature Gradient Coefficient {K/m}
Environment:Site Atmospheric Variation,0.330,460.000,6.500000E-003
! <Surface Geometry>,Starting Corner,Vertex Input Direction,Coordinate System,Daylight Reference Point Coordinate System,Rectangular (Simple) Surface Coordinate System
 Surface Geometry,UpperLeftCorner,Counterclockwise,RelativeCoordinateSystem,RelativeCoordinateSystem,RelativeToZoneOrigin
! <Surface Heat Transfer Algorithm>, Value {CTF - ConductionTransferFunction | EMPD - MoisturePenetrationDepthConductionTransferFunction | CondFD - ConductionFiniteDifference | HAMT - CombinedHeatAndMoistureFiniteElement} - Description,Inside Surface Max Temperature Limit{C}, Surface Convection Coefficient Lower Limit {W/m2-K}, Surface Convection Coefficient Upper Limit {W/m2-K}
Surface Heat Transfer Algorithm, CTF - ConductionTransferFunction,200,0.10,1000.0
Surface Heat Transfer Algorithm, CondFD - ConductionFiniteDifference,200,0.10,1000.0
! <Shading Summary>, Number of Fixed Detached Shades, Number of Building Detached Shades, Number of Attached Shades
 Shading Summary,0,0,0
! <Zone Summary>, Number of Zones, Number of Zone Surfaces, Number of SubSurfaces
 Zone Summary,18,167,24
! <Zone Information>,Zone Name,North Axis {deg},Origin X-Coordinate {m},Origin Y-Coordinate {m},Origin Z-Coordinate {m},Centroid X-Coordinate {m},Centroid Y-Coordinate {m},Centroid Z-Coordinate {m},Type,Zone Multiplier,Zone List Multiplier,Minimum X {m},Maximum X {m},Minimum Y {m},Maximum Y {m},Minimum Z {m},Maximum Z {m},Ceiling Height {m},Volume {m3},Zone Inside Convection Algorithm {Simple-Detailed-CeilingDiffuser-TrombeWall},Zone Outside Convection Algorithm {Simple-Detailed-Tarp-MoWitt-DOE-2-BLAST}, Floor Area {m2},Exterior Gross Wall Area {m2},Exterior Net Wall Area {m2},Exterior Window Area {m2}, Number of Surfaces, Number of SubSurfaces, Number of Shading SubSurfaces,  Part of Total Building Area
 Zone Information, CORE_BOTTOM,0.0,0.00,0.00,0.00,24.96,16.64,1.37,1,1,1,4.57,45.34,4.57,28.70,0.00,2.74,2.74,2698.04,TARP,TARP,983.54,0.00,0.00,0.00,6,0,0,Yes
 Zone Information, TOPFLOOR_PLENUM,0.0,0.00,0.00,0.00,24.96,16.64,11.28,1,1,1,0.00,49.91,0.00,33.27,10.67,11.89,1.22,2024.76,TARP,TARP,1660.73,202.84,202.84,0.00,10,0,0,No
 Zone Information, MIDFLOOR_PLENUM,0.0,0.00,0.00,0.00,24.96,16.64,7.32,1,1,1,0.00,49.91,0.00,33.27,6.71,7.92,1.22,2024.76,TARP,TARP,1660.73,202.84,202.84,0.00,14,0,0,No
 Zone Information, FIRSTFLOOR_PLENUM,0.0,0.00,0.00,0.00,24.96,16.64,3.35,1,1,1,0.00,49.91,0.00,33.27,2.74,3.96,1.22,2024.76,TARP,TARP,1660.73,202.84,202.84,0.00,14,0,0,No
 Zone Information, CORE_MID,0.0,0.00,0.00,0.00,24.96,16.64,5.33,1,1,1,4.57,45.34,4.57,28.70,3.96,6.71,2.74,2698.04,TARP,TARP,983.54,0.00,0.00,0.00,6,0,0,Yes
 Zone Information, CORE_TOP,0.0,0.00,0.00,0.00,24.96,16.64,9.30,1,1,1,4.57,45.34,4.57,28.70,7.92,10.67,2.74,2698.04,TARP,TARP,983.54,0.00,0.00,0.00,6,0,0,Yes
 Zone Information, PERIMETER_TOP_ZN_3,0.0,0.00,0.00,0.00,24.96,31.11,9.30,1,1,1,0.00,49.91,28.70,33.27,7.92,10.67,2.74,568.77,TARP,TARP,207.34,136.92,71.65,65.26,6,1,0,Yes
 Zone Information, PERIMETER_TOP_ZN_2,0.0,0.00,0.00,0.00,47.82,16.64,9.30,1,1,1,45.34,49.91,0.00,33.27,7.92,10.67,2.74,360.08,TARP,TARP,131.26,91.28,47.77,43.51,6,1,0,Yes
 Zone Information, PERIMETER_TOP_ZN_1,0.0,0.00,0.00,0.00,24.96,2.16,9.30,1,1,1,0.00,49.91,0.00,4.57,7.92,10.67,2.74,568.77,TARP,TARP,207.34,136.92,71.65,65.26,6,1,0,Yes
 Zone Information, PERIMETER_TOP_ZN_4,0.0,0.00,0.00,0.00,2.09,16.64,9.30,1,1,1,0.00,4.57,0.00,33.27,7.92,10.67,2.74,360.05,TARP,TARP,131.25,91.28,47.77,43.51,6,1,0,Yes
 Zone Information, PERIMETER_BOT_ZN_3,0.0,0.00,0.00,0.00,24.96,31.11,1.37,1,1,1,0.00,49.91,28.70,33.27,0.00,2.74,2.74,568.77,TARP,TARP,207.34,136.92,67.75,65.26,6,5,0,Yes
 Zone Information, PERIMETER_BOT_ZN_2,0.0,0.00,0.00,0.00,47.82,16.64,1.37,1,1,1,45.34,49.91,0.00,33.27,0.00,2.74,2.74,360.08,TARP,TARP,131.26,91.28,45.82,43.51,6,3,0,Yes
 Zone Information, PERIMETER_BOT_ZN_1,0.0,0.00,0.00,0.00,24.96,2.16,1.37,1,1,1,0.00,49.91,0.00,4.57,0.00,2.74,2.74,568.77,TARP,TARP,207.34,136.92,67.75,65.26,6,5,0,Yes
 Zone Information, PERIMETER_BOT_ZN_4,0.0,0.00,0.00,0.00,2.09,16.64,1.37,1,1,1,0.00,4.57,0.00,33.27,0.00,2.74,2.74,360.05,TARP,TARP,131.25,91.28,45.82,43.51,6,3,0,Yes
 Zone Information, PERIMETER_MID_ZN_3,0.0,0.00,0.00,0.00,24.96,31.11,5.33,1,1,1,0.00,49.91,28.70,33.27,3.96,6.71,2.74,568.77,TARP,TARP,207.34,136.92,71.65,65.26,6,1,0,Yes
 Zone Information, PERIMETER_MID_ZN_2,0.0,0.00,0.00,0.00,47.82,16.64,5.33,1,1,1,45.34,49.91,0.00,33.27,3.96,6.71,2.74,360.08,TARP,TARP,131.26,91.28,47.77,43.51,6,1,0,Yes
 Zone Information, PERIMETER_MID_ZN_1,0.0,0.00,0.00,0.00,24.96,2.16,5.33,1,1,1,0.00,49.91,0.00,4.57,3.96,6.71,2.74,568.77,TARP,TARP,207.34,136.92,71.65,65.26,6,1,0,Yes
 Zone Information, PERIMETER_MID_ZN_4,0.0,0.00,0.00,0.00,2.09,16.64,5.33,1,1,1,0.00,4.57,0.00,33.27,3.96,6.71,2.74,360.05,TARP,TARP,131.25,91.28,47.77,43.51,6,1,0,Yes
! <Zone Internal Gains Nominal>,Zone Name, Floor Area {m2},# Occupants,Area per Occupant {m2/person},Occupant per Area {person/m2},Interior Lighting {W/m2},Electric Load {W/m2},Gas Load {W/m2},Other Load {W/m2},Hot Water Eq {W/m2},Steam Equipment {W/m2},Sum Loads per Area {W/m2},Outdoor Controlled Baseboard Heat
 Zone Internal Gains Nominal, CORE_BOTTOM,983.54,52.9,18.579,5.382E-002,8.826,40.844,0.000,0.000,0.000,0.000,49.671,No
 Zone Internal Gains Nominal, TOPFLOOR_PLENUM,1660.73,0.0,N/A,0.000,0.000,0.000,0.000,0.000,0.000,0.000,0.000,No
 Zone Internal Gains Nominal, MIDFLOOR_PLENUM,1660.73,0.0,N/A,0.000,0.000,0.000,0.000,0.000,0.000,0.000,0.000,No
 Zone Internal Gains Nominal, FIRSTFLOOR_PLENUM,1660.73,0.0,N/A,0.000,0.000,0.000,0.000,0.000,0.000,0.000,0.000,No
 Zone Internal Gains Nominal, CORE_MID,983.54,52.9,18.579,5.382E-002,8.826,8.070,0.000,0.000,0.000,0.000,16.896,No
 Zone Internal Gains Nominal, CORE_TOP,983.54,52.9,18.579,5.382E-002,8.826,8.070,0.000,0.000,0.000,0.000,16.896,No
 Zone Internal Gains Nominal, PERIMETER_TOP_ZN_3,207.34,11.2,18.579,5.382E-002,8.826,8.070,0.000,0.000,0.000,0.000,16.896,No
 Zone Internal Gains Nominal, PERIMETER_TOP_ZN_2,131.26,7.1,18.579,5.382E-002,8.826,8.069,0.000,0.000,0.000,0.000,16.896,No
 Zone Internal Gains Nominal, PERIMETER_TOP_ZN_1,207.34,11.2,18.579,5.382E-002,8.826,8.070,0.000,0.000,0.000,0.000,16.896,No
 Zone Internal Gains Nominal, PERIMETER_TOP_ZN_4,131.25,7.1,18.579,5.382E-002,8.826,8.070,0.000,0.000,0.000,0.000,16.896,No
 Zone Internal Gains Nominal, PERIMETER_BOT_ZN_3,207.34,11.2,18.579,5.382E-002,8.826,8.070,0.000,0.000,0.000,0.000,16.896,No
 Zone Internal Gains Nominal, PERIMETER_BOT_ZN_2,131.26,7.1,18.579,5.382E-002,8.826,8.069,0.000,0.000,0.000,0.000,16.896,No
 Zone Internal Gains Nominal, PERIMETER_BOT_ZN_1,207.34,11.2,18.579,5.382E-002,8.826,8.070,0.000,0.000,0.000,0.000,16.896,No
 Zone Internal Gains Nominal, PERIMETER_BOT_ZN_4,131.25,7.1,18.579,5.382E-002,8.826,8.070,0.000,0.000,0.000,0.000,16.896,No
 Zone Internal Gains Nominal, PERIMETER_MID_ZN_3,207.34,11.2,18.579,5.382E-002,8.826,8.070,0.000,0.000,0.000,0.000,16.896,No
 Zone Internal Gains Nominal, PERIMETER_MID_ZN_2,131.26,7.1,18.579,5.382E-002,8.826,8.069,0.000,0.000,0.000,0.000,16.896,No
 Zone Internal Gains Nominal, PERIMETER_MID_ZN_1,207.34,11.2,18.579,5.382E-002,8.826,8.070,0.000,0.000,0.000,0.000,16.896,No
 Zone Internal Gains Nominal, PERIMETER_MID_ZN_4,131.25,7.1,18.579,5.382E-002,8.826,8.070,0.000,0.000,0.000,0.000,16.896,No
! <People Internal Gains Nominal>,Name,Schedule Name,Zone Name,Zone Floor Area {m2},# Zone Occupants,Number of People {},People/Floor Area {person/m2},Floor Area per person {m2/person},Fraction Radiant,Fraction Convected,Sensible Fraction Calculation,Activity level,ASHRAE 55 Warnings,Carbon Dioxide Generation Rate,Nominal Minimum Number of People,Nominal Maximum Number of People,MRT Calculation Type,Work Efficiency, Clothing Insulation Calculation Method,Clothing Insulation Calculation Method Schedule,Clothing,Air Velocity,Fanger Calculation,Pierce Calculation,KSU Calculation,Cooling Effect Calculation,Ankle Draft Calculation
 People Internal Gains Nominal, CORE_BOTTOM,BLDG_OCC_SCH_WO_SB,CORE_BOTTOM,983.54,52.9,52.9,5.382E-002,18.579,0.300,0.700,AutoCalculate,ACTIVITY_SCH,No,3.8200E-008,0,53,Zone Averaged,WORK_EFF_SCH,Clothing Insulation Schedule,N/A,CLOTHING_SCH,AIR_VELO_SCH,Yes,No,No,No,No
 People Internal Gains Nominal, CORE_MID,BLDG_OCC_SCH_WO_SB,CORE_MID,983.54,52.9,52.9,5.382E-002,18.579,0.300,0.700,AutoCalculate,ACTIVITY_SCH,No,3.8200E-008,0,53,Zone Averaged,WORK_EFF_SCH,Clothing Insulation Schedule,N/A,CLOTHING_SCH,AIR_VELO_SCH,Yes,No,No,No,No
 People Internal Gains Nominal, CORE_TOP,BLDG_OCC_SCH_WO_SB,CORE_TOP,983.54,52.9,52.9,5.382E-002,18.579,0.300,0.700,AutoCalculate,ACTIVITY_SCH,No,3.8200E-008,0,53,Zone Averaged,WORK_EFF_SCH,Clothing Insulation Schedule,N/A,CLOTHING_SCH,AIR_VELO_SCH,Yes,No,No,No,No
 People Internal Gains Nominal, PERIMETER_TOP_ZN_3,BLDG_OCC_SCH_WO_SB,PERIMETER_TOP_ZN_3,207.34,11.2,11.2,5.382E-002,18.579,0.300,0.700,AutoCalculate,ACTIVITY_SCH,No,3.8200E-008,0,11,Zone Averaged,WORK_EFF_SCH,Clothing Insulation Schedule,N/A,CLOTHING_SCH,AIR_VELO_SCH,Yes,No,No,No,No
 People Internal Gains Nominal, PERIMETER_TOP_ZN_2,BLDG_OCC_SCH_WO_SB,PERIMETER_TOP_ZN_2,131.26,7.1,7.1,5.382E-002,18.579,0.300,0.700,AutoCalculate,ACTIVITY_SCH,No,3.8200E-008,0,7,Zone Averaged,WORK_EFF_SCH,Clothing Insulation Schedule,N/A,CLOTHING_SCH,AIR_VELO_SCH,Yes,No,No,No,No
 People Internal Gains Nominal, PERIMETER_TOP_ZN_1,BLDG_OCC_SCH_WO_SB,PERIMETER_TOP_ZN_1,207.34,11.2,11.2,5.382E-002,18.579,0.300,0.700,AutoCalculate,ACTIVITY_SCH,No,3.8200E-008,0,11,Zone Averaged,WORK_EFF_SCH,Clothing Insulation Schedule,N/A,CLOTHING_SCH,AIR_VELO_SCH,Yes,No,No,No,No
 People Internal Gains Nominal, PERIMETER_TOP_ZN_4,BLDG_OCC_SCH_WO_SB,PERIMETER_TOP_ZN_4,131.25,7.1,7.1,5.382E-002,18.579,0.300,0.700,AutoCalculate,ACTIVITY_SCH,No,3.8200E-008,0,7,Zone Averaged,WORK_EFF_SCH,Clothing Insulation Schedule,N/A,CLOTHING_SCH,AIR_VELO_SCH,Yes,No,No,No,No
 People Internal Gains Nominal, PERIMETER_BOT_ZN_3,BLDG_OCC_SCH_WO_SB,PERIMETER_BOT_ZN_3,207.34,11.2,11.2,5.382E-002,18.579,0.300,0.700,AutoCalculate,ACTIVITY_SCH,No,3.8200E-008,0,11,Zone Averaged,WORK_EFF_SCH,Clothing Insulation Schedule,N/A,CLOTHING_SCH,AIR_VELO_SCH,Yes,No,No,No,No
 People Internal Gains Nominal, PERIMETER_BOT_ZN_2,BLDG_OCC_SCH_WO_SB,PERIMETER_BOT_ZN_2,131.26,7.1,7.1,5.382E-002,18.579,0.300,0.700,AutoCalculate,ACTIVITY_SCH,No,3.8200E-008,0,7,Zone Averaged,WORK_EFF_SCH,Clothing Insulation Schedule,N/A,CLOTHING_SCH,AIR_VELO_SCH,Yes,No,No,No,No
 People Internal Gains Nominal, PERIMETER_BOT_ZN_1,BLDG_OCC_SCH_WO_SB,PERIMETER_BOT_ZN_1,207.34,11.2,11.2,5.382E-002,18.579,0.300,0.700,AutoCalculate,ACTIVITY_SCH,No,3.8200E-008,0,11,Zone Averaged,WORK_EFF_SCH,Clothing Insulation Schedule,N/A,CLOTHING_SCH,AIR_VELO_SCH,Yes,No,No,No,No
 People Internal Gains Nominal, PERIMETER_BOT_ZN_4,BLDG_OCC_SCH_WO_SB,PERIMETER_BOT_ZN_4,131.25,7.1,7.1,5.382E-002,18.579,0.300,0.700,AutoCalculate,ACTIVITY_SCH,No,3.8200E-008,0,7,Zone Averaged,WORK_EFF_SCH,Clothing Insulation Schedule,N/A,CLOTHING_SCH,AIR_VELO_SCH,Yes,No,No,No,No
 People Internal Gains Nominal, PERIMETER_MID_ZN_3,BLDG_OCC_SCH_WO_SB,PERIMETER_MID_ZN_3,207.34,11.2,11.2,5.382E-002,18.579,0.300,0.700,AutoCalculate,ACTIVITY_SCH,No,3.8200E-008,0,11,Zone Averaged,WORK_EFF_SCH,Clothing Insulation Schedule,N/A,CLOTHING_SCH,AIR_VELO_SCH,Yes,No,No,No,No
 People Internal Gains Nominal, PERIMETER_MID_ZN_2,BLDG_OCC_SCH_W_SB,PERIMETER_MID_ZN_2,131.26,7.1,7.1,5.382E-002,18.579,0.300,0.700,AutoCalculate,ACTIVITY_SCH,No,3.8200E-008,0,7,Zone Averaged,WORK_EFF_SCH,Clothing Insulation Schedule,N/A,CLOTHING_SCH,AIR_VELO_SCH,Yes,No,No,No,No
 People Internal Gains Nominal, PERIMETER_MID_ZN_1,BLDG_OCC_SCH_WO_SB,PERIMETER_MID_ZN_1,207.34,11.2,11.2,5.382E-002,18.579,0.300,0.700,AutoCalculate,ACTIVITY_SCH,No,3.8200E-008,0,11,Zone Averaged,WORK_EFF_SCH,Clothing Insulation Schedule,N/A,CLOTHING_SCH,AIR_VELO_SCH,Yes,No,No,No,No
 People Internal Gains Nominal, PERIMETER_MID_ZN_4,BLDG_OCC_SCH_WO_SB,PERIMETER_MID_ZN_4,131.25,7.1,7.1,5.382E-002,18.579,0.300,0.700,AutoCalculate,ACTIVITY_SCH,No,3.8200E-008,0,7,Zone Averaged,WORK_EFF_SCH,Clothing Insulation Schedule,N/A,CLOTHING_SCH,AIR_VELO_SCH,Yes,No,No,No,No
! <Lights Internal Gains Nominal>,Name,Schedule Name,Zone Name,Zone Floor Area {m2},# Zone Occupants,Lighting Level {W},Lights/Floor Area {W/m2},Lights per person {W/person},Fraction Return Air,Fraction Radiant,Fraction Short Wave,Fraction Convected,Fraction Replaceable,End-Use Category,Nominal Minimum Lighting Level {W},Nominal Maximum Lighting Level {W}
 Lights Internal Gains Nominal, CORE_BOTTOM_LIGHTS,BLDG_LIGHT_SCH,CORE_BOTTOM,983.54,52.9,8681.094,8.826,163.984,0.000,0.700,0.200,0.100,1.000,LightsWired,0.000,8681.094
 Lights Internal Gains Nominal, CORE_MID_LIGHTS,BLDG_LIGHT_SCH,CORE_MID,983.54,52.9,8681.094,8.826,163.984,0.000,0.700,0.200,0.100,1.000,LightsWired,0.000,8681.094
 Lights Internal Gains Nominal, CORE_TOP_LIGHTS,BLDG_LIGHT_SCH,CORE_TOP,983.54,52.9,8681.094,8.826,163.984,0.000,0.700,0.200,0.100,1.000,LightsWired,0.000,8681.094
 Lights Internal Gains Nominal, PERIMETER_TOP_ZN_3_LIGHTS,BLDG_LIGHT_SCH,PERIMETER_TOP_ZN_3,207.34,11.2,1830.051,8.826,163.984,0.000,0.700,0.200,0.100,1.000,LightsWired,0.000,1830.051
 Lights Internal Gains Nominal, PERIMETER_TOP_ZN_2_LIGHTS,BLDG_LIGHT_SCH,PERIMETER_TOP_ZN_2,131.26,7.1,1158.573,8.826,163.984,0.000,0.700,0.200,0.100,1.000,LightsWired,0.000,1158.573
 Lights Internal Gains Nominal, PERIMETER_TOP_ZN_1_LIGHTS,BLDG_LIGHT_SCH,PERIMETER_TOP_ZN_1,207.34,11.2,1830.051,8.826,163.984,0.000,0.700,0.200,0.100,1.000,LightsWired,0.000,1830.051
 Lights Internal Gains Nominal, PERIMETER_TOP_ZN_4_LIGHTS,BLDG_LIGHT_SCH,PERIMETER_TOP_ZN_4,131.25,7.1,1158.497,8.826,163.984,0.000,0.700,0.200,0.100,1.000,LightsWired,0.000,1158.497
 Lights Internal Gains Nominal, PERIMETER_BOT_ZN_3_LIGHTS,BLDG_LIGHT_SCH,PERIMETER_BOT_ZN_3,207.34,11.2,1830.051,8.826,163.984,0.000,0.700,0.200,0.100,1.000,LightsWired,0.000,1830.051
 Lights Internal Gains Nominal, PERIMETER_BOT_ZN_2_LIGHTS,BLDG_LIGHT_SCH,PERIMETER_BOT_ZN_2,131.26,7.1,1158.573,8.826,163.984,0.000,0.700,0.200,0.100,1.000,LightsWired,0.000,1158.573
 Lights Internal Gains Nominal, PERIMETER_BOT_ZN_1_LIGHTS,BLDG_LIGHT_SCH,PERIMETER_BOT_ZN_1,207.34,11.2,1830.051,8.826,163.984,0.000,0.700,0.200,0.100,1.000,LightsWired,0.000,1830.051
 Lights Internal Gains Nominal, PERIMETER_BOT_ZN_4_LIGHTS,BLDG_LIGHT_SCH,PERIMETER_BOT_ZN_4,131.25,7.1,1158.497,8.826,163.984,0.000,0.700,0.200,0.100,1.000,LightsWired,0.000,1158.497
 Lights Internal Gains Nominal, PERIMETER_MID_ZN_3_LIGHTS,BLDG_LIGHT_SCH,PERIMETER_MID_ZN_3,207.34,11.2,1830.051,8.826,163.984,0.000,0.700,0.200,0.100,1.000,LightsWired,0.000,1830.051
 Lights Internal Gains Nominal, PERIMETER_MID_ZN_2_LIGHTS,BLDG_LIGHT_SCH,PERIMETER_MID_ZN_2,131.26,7.1,1158.573,8.826,163.984,0.000,0.700,0.200,0.100,1.000,LightsWired,0.000,1158.573
 Lights Internal Gains Nominal, PERIMETER_MID_ZN_1_LIGHTS,BLDG_LIGHT_SCH,PERIMETER_MID_ZN_1,207.34,11.2,1830.051,8.826,163.984,0.000,0.700,0.200,0.100,1.000,LightsWired,0.000,1830.051
 Lights Internal Gains Nominal, PERIMETER_MID_ZN_4_LIGHTS,BLDG_LIGHT_SCH,PERIMETER_MID_ZN_4,131.25,7.1,1158.497,8.826,163.984,0.000,0.700,0.200,0.100,1.000,LightsWired,0.000,1158.497
! <ElectricEquipment Internal Gains Nominal>,Name,Schedule Name,Zone Name,Zone Floor Area {m2},# Zone Occupants,Equipment Level {W},Equipment/Floor Area {W/m2},Equipment per person {W/person},Fraction Latent,Fraction Radiant,Fraction Lost,Fraction Convected,End-Use SubCategory,Nominal Minimum Equipment Level {W},Nominal Maximum Equipment Level {W}
 ElectricEquipment Internal Gains Nominal, CORE_BOTTOM_MISCPLUG_EQUIP,BLDG_EQUIP_SCH,CORE_BOTTOM,983.54,52.9,7937.156,8.070,149.931,0.000,0.500,0.000,0.500,MiscPlug,0.000,7937.156
 ElectricEquipment Internal Gains Nominal, CORE_MID_MISCPLUG_EQUIP,BLDG_EQUIP_SCH,CORE_MID,983.54,52.9,7937.156,8.070,149.931,0.000,0.500,0.000,0.500,MiscPlug,0.000,7937.156
 ElectricEquipment Internal Gains Nominal, CORE_TOP_MISCPLUG_EQUIP,BLDG_EQUIP_SCH,CORE_TOP,983.54,52.9,7937.156,8.070,149.931,0.000,0.500,0.000,0.500,MiscPlug,0.000,7937.156
 ElectricEquipment Internal Gains Nominal, PERIMETER_TOP_ZN_3_MISCPLUG_EQUIP,BLDG_EQUIP_SCH,PERIMETER_TOP_ZN_3,207.34,11.2,1673.214,8.070,149.930,0.000,0.500,0.000,0.500,MiscPlug,0.000,1673.214
 ElectricEquipment Internal Gains Nominal, PERIMETER_TOP_ZN_2_MISCPLUG_EQUIP,BLDG_EQUIP_SCH,PERIMETER_TOP_ZN_2,131.26,7.1,1059.217,8.069,149.921,0.000,0.500,0.000,0.500,MiscPlug,0.000,1059.217
 ElectricEquipment Internal Gains Nominal, PERIMETER_TOP_ZN_1_MISCPLUG_EQUIP,BLDG_EQUIP_SCH,PERIMETER_TOP_ZN_1,207.34,11.2,1673.203,8.070,149.929,0.000,0.500,0.000,0.500,MiscPlug,0.000,1673.203
 ElectricEquipment Internal Gains Nominal, PERIMETER_TOP_ZN_4_MISCPLUG_EQUIP,BLDG_EQUIP_SCH,PERIMETER_TOP_ZN_4,131.25,7.1,1059.210,8.070,149.930,0.000,0.500,0.000,0.500,MiscPlug,0.000,1059.210
 ElectricEquipment Internal Gains Nominal, PERIMETER_BOT_ZN_3_MISCPLUG_EQUIP,BLDG_EQUIP_SCH,PERIMETER_BOT_ZN_3,207.34,11.2,1673.214,8.070,149.930,0.000,0.500,0.000,0.500,MiscPlug,0.000,1673.214
 ElectricEquipment Internal Gains Nominal, PERIMETER_BOT_ZN_2_MISCPLUG_EQUIP,BLDG_EQUIP_SCH,PERIMETER_BOT_ZN_2,131.26,7.1,1059.217,8.069,149.921,0.000,0.500,0.000,0.500,MiscPlug,0.000,1059.217
 ElectricEquipment Internal Gains Nominal, PERIMETER_BOT_ZN_1_MISCPLUG_EQUIP,BLDG_EQUIP_SCH,PERIMETER_BOT_ZN_1,207.34,11.2,1673.203,8.070,149.929,0.000,0.500,0.000,0.500,MiscPlug,0.000,1673.203
 ElectricEquipment Internal Gains Nominal, PERIMETER_BOT_ZN_4_MISCPLUG_EQUIP,BLDG_EQUIP_SCH,PERIMETER_BOT_ZN_4,131.25,7.1,1059.210,8.070,149.930,0.000,0.500,0.000,0.500,MiscPlug,0.000,1059.210
 ElectricEquipment Internal Gains Nominal, PERIMETER_MID_ZN_3_MISCPLUG_EQUIP,BLDG_EQUIP_SCH,PERIMETER_MID_ZN_3,207.34,11.2,1673.214,8.070,149.930,0.000,0.500,0.000,0.500,MiscPlug,0.000,1673.214
 ElectricEquipment Internal Gains Nominal, PERIMETER_MID_ZN_2_MISCPLUG_EQUIP,BLDG_EQUIP_SCH,PERIMETER_MID_ZN_2,131.26,7.1,1059.217,8.069,149.921,0.000,0.500,0.000,0.500,MiscPlug,0.000,1059.217
 ElectricEquipment Internal Gains Nominal, PERIMETER_MID_ZN_1_MISCPLUG_EQUIP,BLDG_EQUIP_SCH,PERIMETER_MID_ZN_1,207.34,11.2,1673.203,8.070,149.929,0.000,0.500,0.000,0.500,MiscPlug,0.000,1673.203
 ElectricEquipment Internal Gains Nominal, PERIMETER_MID_ZN_4_MISCPLUG_EQUIP,BLDG_EQUIP_SCH,PERIMETER_MID_ZN_4,131.25,7.1,1059.210,8.070,149.930,0.000,0.500,0.000,0.500,MiscPlug,0.000,1059.210
 ElectricEquipment Internal Gains Nominal, CORE_BOTTOM_ELEVATORS_EQUIP,BLDG_ELEVATORS,CORE_BOTTOM,983.54,52.9,32109.890,32.647,606.549,0.000,0.500,0.000,0.500,ElevatorLift,0.000,22155.824
 ElectricEquipment Internal Gains Nominal, ELEVATORS_LIGHTS_FAN,ELEV_LIGHT_FAN_SCH_ADD_DF,CORE_BOTTOM,983.54,52.9,125.000,0.127,2.361,0.000,0.500,0.000,0.500,ElevatorLightsFan,0.000,86.250
! <Shadowing/Sun Position Calculations Annual Simulations>, Shading Calculation Method, Shading Calculation Update Frequency Method, Shading Calculation Update Frequency {days}, Maximum Figures in Shadow Overlap Calculations {}, Polygon Clipping Algorithm, Pixel Counting Resolution, Sky Diffuse Modeling Algorithm, Output External Shading Calculation Results, Disable Self-Shading Within Shading Zone Groups, Disable Self-Shading From Shading Zone Groups to Other Zones
Shadowing/Sun Position Calculations Annual Simulations,PolygonClipping,Periodic,30,15000,SutherlandHodgman,512,SimpleSkyDiffuseModeling,No,No,No
! <Zone/Window Adjacency Daylighting Counts>, Zone Name, Number of Exterior Windows, Number of Exterior Windows in Adjacent Zones
Zone/Window Adjacency Daylighting Counts, PERIMETER_TOP_ZN_3,1,0
Zone/Window Adjacency Daylighting Counts, PERIMETER_TOP_ZN_2,1,0
Zone/Window Adjacency Daylighting Counts, PERIMETER_TOP_ZN_1,1,0
Zone/Window Adjacency Daylighting Counts, PERIMETER_TOP_ZN_4,1,0
Zone/Window Adjacency Daylighting Counts, PERIMETER_BOT_ZN_3,3,0
Zone/Window Adjacency Daylighting Counts, PERIMETER_BOT_ZN_2,2,0
Zone/Window Adjacency Daylighting Counts, PERIMETER_BOT_ZN_1,3,0
Zone/Window Adjacency Daylighting Counts, PERIMETER_BOT_ZN_4,2,0
Zone/Window Adjacency Daylighting Counts, PERIMETER_MID_ZN_3,1,0
Zone/Window Adjacency Daylighting Counts, PERIMETER_MID_ZN_2,1,0
Zone/Window Adjacency Daylighting Counts, PERIMETER_MID_ZN_1,1,0
Zone/Window Adjacency Daylighting Counts, PERIMETER_MID_ZN_4,1,0
! <Zone/Window Adjacency Daylighting Matrix>, Zone Name, Number of Adjacent Zones with Windows,Adjacent Zone Names - 1st 100 (max)
Zone/Window Adjacency Daylighting Matrix, PERIMETER_TOP_ZN_3,0
Zone/Window Adjacency Daylighting Matrix, PERIMETER_TOP_ZN_2,0
Zone/Window Adjacency Daylighting Matrix, PERIMETER_TOP_ZN_1,0
Zone/Window Adjacency Daylighting Matrix, PERIMETER_TOP_ZN_4,0
Zone/Window Adjacency Daylighting Matrix, PERIMETER_BOT_ZN_3,0
Zone/Window Adjacency Daylighting Matrix, PERIMETER_BOT_ZN_2,0
Zone/Window Adjacency Daylighting Matrix, PERIMETER_BOT_ZN_1,0
Zone/Window Adjacency Daylighting Matrix, PERIMETER_BOT_ZN_4,0
Zone/Window Adjacency Daylighting Matrix, PERIMETER_MID_ZN_3,0
Zone/Window Adjacency Daylighting Matrix, PERIMETER_MID_ZN_2,0
Zone/Window Adjacency Daylighting Matrix, PERIMETER_MID_ZN_1,0
Zone/Window Adjacency Daylighting Matrix, PERIMETER_MID_ZN_4,0
! <ConductionFiniteDifference HeatBalanceSettings>,Scheme Type,Space Discretization Constant,Relaxation Factor,Inside Face Surface Temperature Convergence Criteria
 ConductionFiniteDifference HeatBalanceSettings,FullyImplicitFirstOrder,3.00,1.00,2.0000E-003
! <ZoneInfiltration Airflow Stats Nominal>,Name,Schedule Name,Zone Name, Zone Floor Area {m2}, # Zone Occupants,Design Volume Flow Rate {m3/s},Volume Flow Rate/Floor Area {m3/s-m2},Volume Flow Rate/Exterior Surface Area {m3/s-m2},ACH - Air Changes per Hour,Equation A - Constant Term Coefficient {},Equation B - Temperature Term Coefficient {1/C},Equation C - Velocity Term Coefficient {s/m}, Equation D - Velocity Squared Term Coefficient {s2/m2}
 ZoneInfiltration Airflow Stats Nominal, PERIMETER_TOP_ZN_3_INFILTRATION,INFIL_SCH_PNNL,PERIMETER_TOP_ZN_3,207.34,11.2,7.790E-002,3.757E-004,5.690E-004,0.493,0.000,0.000,0.224,0.000
 ZoneInfiltration Airflow Stats Nominal, PERIMETER_TOP_ZN_2_INFILTRATION,INFIL_SCH_PNNL,PERIMETER_TOP_ZN_2,131.26,7.1,5.193E-002,3.956E-004,5.690E-004,0.519,0.000,0.000,0.224,0.000
 ZoneInfiltration Airflow Stats Nominal, PERIMETER_TOP_ZN_1_INFILTRATION,INFIL_SCH_PNNL,PERIMETER_TOP_ZN_1,207.34,11.2,7.790E-002,3.757E-004,5.690E-004,0.493,0.000,0.000,0.224,0.000
 ZoneInfiltration Airflow Stats Nominal, PERIMETER_TOP_ZN_4_INFILTRATION,INFIL_SCH_PNNL,PERIMETER_TOP_ZN_4,131.25,7.1,5.193E-002,3.957E-004,5.690E-004,0.519,0.000,0.000,0.224,0.000
 ZoneInfiltration Airflow Stats Nominal, PERIMETER_BOT_ZN_3_INFILTRATION,INFIL_SCH_PNNL,PERIMETER_BOT_ZN_3,207.34,11.2,8.012E-002,3.864E-004,5.690E-004,0.507,0.000,0.000,0.224,0.000
 ZoneInfiltration Airflow Stats Nominal, PERIMETER_BOT_ZN_2_INFILTRATION,INFIL_SCH_PNNL,PERIMETER_BOT_ZN_2,131.26,7.1,5.304E-002,4.041E-004,5.690E-004,0.530,0.000,0.000,0.224,0.000
 ZoneInfiltration Airflow Stats Nominal, PERIMETER_BOT_ZN_1_INFILTRATION,INFIL_SCH_PNNL,PERIMETER_BOT_ZN_1,207.34,11.2,8.012E-002,3.864E-004,5.690E-004,0.507,0.000,0.000,0.224,0.000
 ZoneInfiltration Airflow Stats Nominal, PERIMETER_BOT_ZN_1_DOOR_INFILTRATION,INFIL_DOOR_OPENING_SCH,PERIMETER_BOT_ZN_1,207.34,11.2,0.679,3.273E-003,4.819E-003,4.296,1.000,0.000,0.000,0.000
 ZoneInfiltration Airflow Stats Nominal, PERIMETER_BOT_ZN_4_INFILTRATION,INFIL_SCH_PNNL,PERIMETER_BOT_ZN_4,131.25,7.1,5.304E-002,4.041E-004,5.690E-004,0.530,0.000,0.000,0.224,0.000
 ZoneInfiltration Airflow Stats Nominal, PERIMETER_MID_ZN_3_INFILTRATION,INFIL_SCH_PNNL,PERIMETER_MID_ZN_3,207.34,11.2,7.790E-002,3.757E-004,5.690E-004,0.493,0.000,0.000,0.224,0.000
 ZoneInfiltration Airflow Stats Nominal, PERIMETER_MID_ZN_2_INFILTRATION,INFIL_SCH_PNNL,PERIMETER_MID_ZN_2,131.26,7.1,5.193E-002,3.956E-004,5.690E-004,0.519,0.000,0.000,0.224,0.000
 ZoneInfiltration Airflow Stats Nominal, PERIMETER_MID_ZN_1_INFILTRATION,INFIL_SCH_PNNL,PERIMETER_MID_ZN_1,207.34,11.2,7.790E-002,3.757E-004,5.690E-004,0.493,0.000,0.000,0.224,0.000
 ZoneInfiltration Airflow Stats Nominal, PERIMETER_MID_ZN_4_INFILTRATION,INFIL_SCH_PNNL,PERIMETER_MID_ZN_4,131.25,7.1,5.193E-002,3.957E-004,5.690E-004,0.519,0.000,0.000,0.224,0.000
 ZoneInfiltration Airflow Stats Nominal, FIRSTFLOOR_PLENUM_INFILTRATION,INFIL_SCH_PNNL,FIRSTFLOOR_PLENUM,1660.73,0.0,0.115,6.949E-005,5.690E-004,0.205,0.000,0.000,0.224,0.000
 ZoneInfiltration Airflow Stats Nominal, MIDFLOOR_PLENUM_INFILTRATION,INFIL_SCH_PNNL,MIDFLOOR_PLENUM,1660.73,0.0,0.115,6.949E-005,5.690E-004,0.205,0.000,0.000,0.224,0.000
 ZoneInfiltration Airflow Stats Nominal, TOPFLOOR_PLENUM_INFILTRATION,INFIL_SCH_PNNL,TOPFLOOR_PLENUM,1660.73,0.0,0.115,6.949E-005,6.193E-005,0.205,0.000,0.000,0.224,0.000
! <AirFlow Model>, Simple
 AirFlow Model, Simple
! <RoomAir Model>, Zone Name, Mixing/Mundt/UCSDDV/UCSDCV/UCSDUFI/UCSDUFE/User Defined
RoomAir Model,CORE_BOTTOM,Mixing/Well-Stirred
RoomAir Model,TOPFLOOR_PLENUM,Mixing/Well-Stirred
RoomAir Model,MIDFLOOR_PLENUM,Mixing/Well-Stirred
RoomAir Model,FIRSTFLOOR_PLENUM,Mixing/Well-Stirred
RoomAir Model,CORE_MID,Mixing/Well-Stirred
RoomAir Model,CORE_TOP,Mixing/Well-Stirred
RoomAir Model,PERIMETER_TOP_ZN_3,Mixing/Well-Stirred
RoomAir Model,PERIMETER_TOP_ZN_2,Mixing/Well-Stirred
RoomAir Model,PERIMETER_TOP_ZN_1,Mixing/Well-Stirred
RoomAir Model,PERIMETER_TOP_ZN_4,Mixing/Well-Stirred
RoomAir Model,PERIMETER_BOT_ZN_3,Mixing/Well-Stirred
RoomAir Model,PERIMETER_BOT_ZN_2,Mixing/Well-Stirred
RoomAir Model,PERIMETER_BOT_ZN_1,Mixing/Well-Stirred
RoomAir Model,PERIMETER_BOT_ZN_4,Mixing/Well-Stirred
RoomAir Model,PERIMETER_MID_ZN_3,Mixing/Well-Stirred
RoomAir Model,PERIMETER_MID_ZN_2,Mixing/Well-Stirred
RoomAir Model,PERIMETER_MID_ZN_1,Mixing/Well-Stirred
RoomAir Model,PERIMETER_MID_ZN_4,Mixing/Well-Stirred
! <AirflowNetwork Model:Control>, No Multizone or Distribution/Multizone with Distribution/Multizone without Distribution/Multizone with Distribution only during Fan Operation
AirflowNetwork Model:Control,NoMultizoneOrDistribution
! <Zone Volume Capacitance Multiplier>, Sensible Heat Capacity Multiplier, Moisture Capacity Multiplier, Carbon Dioxide Capacity Multiplier, Generic Contaminant Capacity Multiplier
Zone Volume Capacitance Multiplier,   1.000 ,   1.000,   1.000,   1.000
! <Load Timesteps in Zone Design Calculation Averaging Window>, Value
 Load Timesteps in Zone Design Calculation Averaging Window,   20
! <Heating Sizing Factor Information>, Sizing Factor ID, Value
 Heating Sizing Factor Information, Global,   1.0000    
! <Cooling Sizing Factor Information>, Sizing Factor ID, Value
 Cooling Sizing Factor Information, Global,   1.0000    
! <Sky Daylight Factors>, MonthAndDay, Zone Name, Window Name, Reference Point, Daylight Factor
 Sky Daylight Factors,Clear Sky,01/21,PERIMETER_TOP_ZN_3,PERIMETER_TOP_ZN_3_WALL_NORTH_WINDOW,PERIMETER_TOP_ZN_3_DAYLREFPT1,5.7163E-002
 Sky Daylight Factors,Clear Sky,01/21,PERIMETER_TOP_ZN_3,PERIMETER_TOP_ZN_3_WALL_NORTH_WINDOW,PERIMETER_TOP_ZN_3_DAYLREFPT2,3.9869E-002
 Sky Daylight Factors,Clear Turbid Sky,01/21,PERIMETER_TOP_ZN_3,PERIMETER_TOP_ZN_3_WALL_NORTH_WINDOW,PERIMETER_TOP_ZN_3_DAYLREFPT1,4.5208E-002
 Sky Daylight Factors,Clear Turbid Sky,01/21,PERIMETER_TOP_ZN_3,PERIMETER_TOP_ZN_3_WALL_NORTH_WINDOW,PERIMETER_TOP_ZN_3_DAYLREFPT2,3.1529E-002
 Sky Daylight Factors,Intermediate Sky,01/21,PERIMETER_TOP_ZN_3,PERIMETER_TOP_ZN_3_WALL_NORTH_WINDOW,PERIMETER_TOP_ZN_3_DAYLREFPT1,4.1789E-002
 Sky Daylight Factors,Intermediate Sky,01/21,PERIMETER_TOP_ZN_3,PERIMETER_TOP_ZN_3_WALL_NORTH_WINDOW,PERIMETER_TOP_ZN_3_DAYLREFPT2,2.4369E-002
 Sky Daylight Factors,Overcast Sky,01/21,PERIMETER_TOP_ZN_3,PERIMETER_TOP_ZN_3_WALL_NORTH_WINDOW,PERIMETER_TOP_ZN_3_DAYLREFPT1,6.5380E-002
 Sky Daylight Factors,Overcast Sky,01/21,PERIMETER_TOP_ZN_3,PERIMETER_TOP_ZN_3_WALL_NORTH_WINDOW,PERIMETER_TOP_ZN_3_DAYLREFPT2,3.4456E-002
 Sky Daylight Factors,Clear Sky,01/21,PERIMETER_TOP_ZN_2,PERIMETER_TOP_ZN_2_WALL_EAST_WINDOW,PERIMETER_TOP_ZN_2_DAYLREFPT1,9.5101E-002
 Sky Daylight Factors,Clear Sky,01/21,PERIMETER_TOP_ZN_2,PERIMETER_TOP_ZN_2_WALL_EAST_WINDOW,PERIMETER_TOP_ZN_2_DAYLREFPT2,5.8171E-002
 Sky Daylight Factors,Clear Turbid Sky,01/21,PERIMETER_TOP_ZN_2,PERIMETER_TOP_ZN_2_WALL_EAST_WINDOW,PERIMETER_TOP_ZN_2_DAYLREFPT1,9.2304E-002
 Sky Daylight Factors,Clear Turbid Sky,01/21,PERIMETER_TOP_ZN_2,PERIMETER_TOP_ZN_2_WALL_EAST_WINDOW,PERIMETER_TOP_ZN_2_DAYLREFPT2,5.5209E-002
 Sky Daylight Factors,Intermediate Sky,01/21,PERIMETER_TOP_ZN_2,PERIMETER_TOP_ZN_2_WALL_EAST_WINDOW,PERIMETER_TOP_ZN_2_DAYLREFPT1,9.0069E-002
 Sky Daylight Factors,Intermediate Sky,01/21,PERIMETER_TOP_ZN_2,PERIMETER_TOP_ZN_2_WALL_EAST_WINDOW,PERIMETER_TOP_ZN_2_DAYLREFPT2,4.9304E-002
 Sky Daylight Factors,Overcast Sky,01/21,PERIMETER_TOP_ZN_2,PERIMETER_TOP_ZN_2_WALL_EAST_WINDOW,PERIMETER_TOP_ZN_2_DAYLREFPT1,6.5882E-002
 Sky Daylight Factors,Overcast Sky,01/21,PERIMETER_TOP_ZN_2,PERIMETER_TOP_ZN_2_WALL_EAST_WINDOW,PERIMETER_TOP_ZN_2_DAYLREFPT2,3.4748E-002
 Sky Daylight Factors,Clear Sky,01/21,PERIMETER_TOP_ZN_1,PERIMETER_TOP_ZN_1_WALL_SOUTH_WINDOW,PERIMETER_TOP_ZN_1_DAYLREFPT1,0.1948
 Sky Daylight Factors,Clear Sky,01/21,PERIMETER_TOP_ZN_1,PERIMETER_TOP_ZN_1_WALL_SOUTH_WINDOW,PERIMETER_TOP_ZN_1_DAYLREFPT2,0.1123
 Sky Daylight Factors,Clear Turbid Sky,01/21,PERIMETER_TOP_ZN_1,PERIMETER_TOP_ZN_1_WALL_SOUTH_WINDOW,PERIMETER_TOP_ZN_1_DAYLREFPT1,0.2159
 Sky Daylight Factors,Clear Turbid Sky,01/21,PERIMETER_TOP_ZN_1,PERIMETER_TOP_ZN_1_WALL_SOUTH_WINDOW,PERIMETER_TOP_ZN_1_DAYLREFPT2,0.1215
 Sky Daylight Factors,Intermediate Sky,01/21,PERIMETER_TOP_ZN_1,PERIMETER_TOP_ZN_1_WALL_SOUTH_WINDOW,PERIMETER_TOP_ZN_1_DAYLREFPT1,0.1479
 Sky Daylight Factors,Intermediate Sky,01/21,PERIMETER_TOP_ZN_1,PERIMETER_TOP_ZN_1_WALL_SOUTH_WINDOW,PERIMETER_TOP_ZN_1_DAYLREFPT2,7.7935E-002
 Sky Daylight Factors,Overcast Sky,01/21,PERIMETER_TOP_ZN_1,PERIMETER_TOP_ZN_1_WALL_SOUTH_WINDOW,PERIMETER_TOP_ZN_1_DAYLREFPT1,6.5380E-002
 Sky Daylight Factors,Overcast Sky,01/21,PERIMETER_TOP_ZN_1,PERIMETER_TOP_ZN_1_WALL_SOUTH_WINDOW,PERIMETER_TOP_ZN_1_DAYLREFPT2,3.4456E-002
 Sky Daylight Factors,Clear Sky,01/21,PERIMETER_TOP_ZN_4,PERIMETER_TOP_ZN_4_WALL_WEST_WINDOW,PERIMETER_TOP_ZN_4_DAYLREFPT1,6.8168E-002
 Sky Daylight Factors,Clear Sky,01/21,PERIMETER_TOP_ZN_4,PERIMETER_TOP_ZN_4_WALL_WEST_WINDOW,PERIMETER_TOP_ZN_4_DAYLREFPT2,4.4364E-002
 Sky Daylight Factors,Clear Turbid Sky,01/21,PERIMETER_TOP_ZN_4,PERIMETER_TOP_ZN_4_WALL_WEST_WINDOW,PERIMETER_TOP_ZN_4_DAYLREFPT1,5.9413E-002
 Sky Daylight Factors,Clear Turbid Sky,01/21,PERIMETER_TOP_ZN_4,PERIMETER_TOP_ZN_4_WALL_WEST_WINDOW,PERIMETER_TOP_ZN_4_DAYLREFPT2,3.8315E-002
 Sky Daylight Factors,Intermediate Sky,01/21,PERIMETER_TOP_ZN_4,PERIMETER_TOP_ZN_4_WALL_WEST_WINDOW,PERIMETER_TOP_ZN_4_DAYLREFPT1,6.5829E-002
 Sky Daylight Factors,Intermediate Sky,01/21,PERIMETER_TOP_ZN_4,PERIMETER_TOP_ZN_4_WALL_WEST_WINDOW,PERIMETER_TOP_ZN_4_DAYLREFPT2,3.7044E-002
 Sky Daylight Factors,Overcast Sky,01/21,PERIMETER_TOP_ZN_4,PERIMETER_TOP_ZN_4_WALL_WEST_WINDOW,PERIMETER_TOP_ZN_4_DAYLREFPT1,6.5883E-002
 Sky Daylight Factors,Overcast Sky,01/21,PERIMETER_TOP_ZN_4,PERIMETER_TOP_ZN_4_WALL_WEST_WINDOW,PERIMETER_TOP_ZN_4_DAYLREFPT2,3.4749E-002
 Sky Daylight Factors,Clear Sky,01/21,PERIMETER_BOT_ZN_3,PERIMETER_BOT_ZN_3_WALL_NORTH_WINDOW1,PERIMETER_BOT_ZN_3_DAYLREFPT1,6.5848E-003
 Sky Daylight Factors,Clear Sky,01/21,PERIMETER_BOT_ZN_3,PERIMETER_BOT_ZN_3_WALL_NORTH_WINDOW1,PERIMETER_BOT_ZN_3_DAYLREFPT2,6.6438E-003
 Sky Daylight Factors,Clear Turbid Sky,01/21,PERIMETER_BOT_ZN_3,PERIMETER_BOT_ZN_3_WALL_NORTH_WINDOW1,PERIMETER_BOT_ZN_3_DAYLREFPT1,5.4400E-003
 Sky Daylight Factors,Clear Turbid Sky,01/21,PERIMETER_BOT_ZN_3,PERIMETER_BOT_ZN_3_WALL_NORTH_WINDOW1,PERIMETER_BOT_ZN_3_DAYLREFPT2,5.4880E-003
 Sky Daylight Factors,Intermediate Sky,01/21,PERIMETER_BOT_ZN_3,PERIMETER_BOT_ZN_3_WALL_NORTH_WINDOW1,PERIMETER_BOT_ZN_3_DAYLREFPT1,4.7024E-003
 Sky Daylight Factors,Intermediate Sky,01/21,PERIMETER_BOT_ZN_3,PERIMETER_BOT_ZN_3_WALL_NORTH_WINDOW1,PERIMETER_BOT_ZN_3_DAYLREFPT2,4.7392E-003
 Sky Daylight Factors,Overcast Sky,01/21,PERIMETER_BOT_ZN_3,PERIMETER_BOT_ZN_3_WALL_NORTH_WINDOW1,PERIMETER_BOT_ZN_3_DAYLREFPT1,6.5152E-003
 Sky Daylight Factors,Overcast Sky,01/21,PERIMETER_BOT_ZN_3,PERIMETER_BOT_ZN_3_WALL_NORTH_WINDOW1,PERIMETER_BOT_ZN_3_DAYLREFPT2,6.5408E-003
 Sky Daylight Factors,Clear Sky,01/21,PERIMETER_BOT_ZN_3,PERIMETER_BOT_ZN_3_WALL_NORTH_WINDOW2,PERIMETER_BOT_ZN_3_DAYLREFPT1,4.5296E-002
 Sky Daylight Factors,Clear Sky,01/21,PERIMETER_BOT_ZN_3,PERIMETER_BOT_ZN_3_WALL_NORTH_WINDOW2,PERIMETER_BOT_ZN_3_DAYLREFPT2,2.6551E-002
 Sky Daylight Factors,Clear Turbid Sky,01/21,PERIMETER_BOT_ZN_3,PERIMETER_BOT_ZN_3_WALL_NORTH_WINDOW2,PERIMETER_BOT_ZN_3_DAYLREFPT1,3.5155E-002
 Sky Daylight Factors,Clear Turbid Sky,01/21,PERIMETER_BOT_ZN_3,PERIMETER_BOT_ZN_3_WALL_NORTH_WINDOW2,PERIMETER_BOT_ZN_3_DAYLREFPT2,2.0395E-002
 Sky Daylight Factors,Intermediate Sky,01/21,PERIMETER_BOT_ZN_3,PERIMETER_BOT_ZN_3_WALL_NORTH_WINDOW2,PERIMETER_BOT_ZN_3_DAYLREFPT1,3.2484E-002
 Sky Daylight Factors,Intermediate Sky,01/21,PERIMETER_BOT_ZN_3,PERIMETER_BOT_ZN_3_WALL_NORTH_WINDOW2,PERIMETER_BOT_ZN_3_DAYLREFPT2,1.4500E-002
 Sky Daylight Factors,Overcast Sky,01/21,PERIMETER_BOT_ZN_3,PERIMETER_BOT_ZN_3_WALL_NORTH_WINDOW2,PERIMETER_BOT_ZN_3_DAYLREFPT1,5.2783E-002
 Sky Daylight Factors,Overcast Sky,01/21,PERIMETER_BOT_ZN_3,PERIMETER_BOT_ZN_3_WALL_NORTH_WINDOW2,PERIMETER_BOT_ZN_3_DAYLREFPT2,2.0996E-002
 Sky Daylight Factors,Clear Sky,01/21,PERIMETER_BOT_ZN_3,PERIMETER_BOT_ZN_3_WALL_NORTH_WINDOW3,PERIMETER_BOT_ZN_3_DAYLREFPT1,6.5836E-003
 Sky Daylight Factors,Clear Sky,01/21,PERIMETER_BOT_ZN_3,PERIMETER_BOT_ZN_3_WALL_NORTH_WINDOW3,PERIMETER_BOT_ZN_3_DAYLREFPT2,6.6429E-003
 Sky Daylight Factors,Clear Turbid Sky,01/21,PERIMETER_BOT_ZN_3,PERIMETER_BOT_ZN_3_WALL_NORTH_WINDOW3,PERIMETER_BOT_ZN_3_DAYLREFPT1,5.4379E-003
 Sky Daylight Factors,Clear Turbid Sky,01/21,PERIMETER_BOT_ZN_3,PERIMETER_BOT_ZN_3_WALL_NORTH_WINDOW3,PERIMETER_BOT_ZN_3_DAYLREFPT2,5.4834E-003
 Sky Daylight Factors,Intermediate Sky,01/21,PERIMETER_BOT_ZN_3,PERIMETER_BOT_ZN_3_WALL_NORTH_WINDOW3,PERIMETER_BOT_ZN_3_DAYLREFPT1,4.6986E-003
 Sky Daylight Factors,Intermediate Sky,01/21,PERIMETER_BOT_ZN_3,PERIMETER_BOT_ZN_3_WALL_NORTH_WINDOW3,PERIMETER_BOT_ZN_3_DAYLREFPT2,4.7251E-003
 Sky Daylight Factors,Overcast Sky,01/21,PERIMETER_BOT_ZN_3,PERIMETER_BOT_ZN_3_WALL_NORTH_WINDOW3,PERIMETER_BOT_ZN_3_DAYLREFPT1,6.5157E-003
 Sky Daylight Factors,Overcast Sky,01/21,PERIMETER_BOT_ZN_3,PERIMETER_BOT_ZN_3_WALL_NORTH_WINDOW3,PERIMETER_BOT_ZN_3_DAYLREFPT2,6.5413E-003
 Sky Daylight Factors,Clear Sky,01/21,PERIMETER_BOT_ZN_2,PERIMETER_BOT_ZN_2_WALL_EAST_WINDOW1,PERIMETER_BOT_ZN_2_DAYLREFPT1,9.5105E-002
 Sky Daylight Factors,Clear Sky,01/21,PERIMETER_BOT_ZN_2,PERIMETER_BOT_ZN_2_WALL_EAST_WINDOW1,PERIMETER_BOT_ZN_2_DAYLREFPT2,5.7035E-002
 Sky Daylight Factors,Clear Turbid Sky,01/21,PERIMETER_BOT_ZN_2,PERIMETER_BOT_ZN_2_WALL_EAST_WINDOW1,PERIMETER_BOT_ZN_2_DAYLREFPT1,9.2182E-002
 Sky Daylight Factors,Clear Turbid Sky,01/21,PERIMETER_BOT_ZN_2,PERIMETER_BOT_ZN_2_WALL_EAST_WINDOW1,PERIMETER_BOT_ZN_2_DAYLREFPT2,5.4053E-002
 Sky Daylight Factors,Intermediate Sky,01/21,PERIMETER_BOT_ZN_2,PERIMETER_BOT_ZN_2_WALL_EAST_WINDOW1,PERIMETER_BOT_ZN_2_DAYLREFPT1,8.9588E-002
 Sky Daylight Factors,Intermediate Sky,01/21,PERIMETER_BOT_ZN_2,PERIMETER_BOT_ZN_2_WALL_EAST_WINDOW1,PERIMETER_BOT_ZN_2_DAYLREFPT2,4.8059E-002
 Sky Daylight Factors,Overcast Sky,01/21,PERIMETER_BOT_ZN_2,PERIMETER_BOT_ZN_2_WALL_EAST_WINDOW1,PERIMETER_BOT_ZN_2_DAYLREFPT1,6.5172E-002
 Sky Daylight Factors,Overcast Sky,01/21,PERIMETER_BOT_ZN_2,PERIMETER_BOT_ZN_2_WALL_EAST_WINDOW1,PERIMETER_BOT_ZN_2_DAYLREFPT2,3.3592E-002
 Sky Daylight Factors,Clear Sky,01/21,PERIMETER_BOT_ZN_2,PERIMETER_BOT_ZN_2_WALL_EAST_WINDOW2,PERIMETER_BOT_ZN_2_DAYLREFPT1,1.0950E-003
 Sky Daylight Factors,Clear Sky,01/21,PERIMETER_BOT_ZN_2,PERIMETER_BOT_ZN_2_WALL_EAST_WINDOW2,PERIMETER_BOT_ZN_2_DAYLREFPT2,1.0975E-003
 Sky Daylight Factors,Clear Turbid Sky,01/21,PERIMETER_BOT_ZN_2,PERIMETER_BOT_ZN_2_WALL_EAST_WINDOW2,PERIMETER_BOT_ZN_2_DAYLREFPT1,1.0581E-003
 Sky Daylight Factors,Clear Turbid Sky,01/21,PERIMETER_BOT_ZN_2,PERIMETER_BOT_ZN_2_WALL_EAST_WINDOW2,PERIMETER_BOT_ZN_2_DAYLREFPT2,1.0599E-003
 Sky Daylight Factors,Intermediate Sky,01/21,PERIMETER_BOT_ZN_2,PERIMETER_BOT_ZN_2_WALL_EAST_WINDOW2,PERIMETER_BOT_ZN_2_DAYLREFPT1,9.7148E-004
 Sky Daylight Factors,Intermediate Sky,01/21,PERIMETER_BOT_ZN_2,PERIMETER_BOT_ZN_2_WALL_EAST_WINDOW2,PERIMETER_BOT_ZN_2_DAYLREFPT2,9.7217E-004
 Sky Daylight Factors,Overcast Sky,01/21,PERIMETER_BOT_ZN_2,PERIMETER_BOT_ZN_2_WALL_EAST_WINDOW2,PERIMETER_BOT_ZN_2_DAYLREFPT1,7.5257E-004
 Sky Daylight Factors,Overcast Sky,01/21,PERIMETER_BOT_ZN_2,PERIMETER_BOT_ZN_2_WALL_EAST_WINDOW2,PERIMETER_BOT_ZN_2_DAYLREFPT2,7.5345E-004
 Sky Daylight Factors,Clear Sky,01/21,PERIMETER_BOT_ZN_1,PERIMETER_BOT_ZN_1_WALL_SOUTH_WINDOW1,PERIMETER_BOT_ZN_1_DAYLREFPT1,1.6717E-002
 Sky Daylight Factors,Clear Sky,01/21,PERIMETER_BOT_ZN_1,PERIMETER_BOT_ZN_1_WALL_SOUTH_WINDOW1,PERIMETER_BOT_ZN_1_DAYLREFPT2,1.6778E-002
 Sky Daylight Factors,Clear Turbid Sky,01/21,PERIMETER_BOT_ZN_1,PERIMETER_BOT_ZN_1_WALL_SOUTH_WINDOW1,PERIMETER_BOT_ZN_1_DAYLREFPT1,1.8009E-002
 Sky Daylight Factors,Clear Turbid Sky,01/21,PERIMETER_BOT_ZN_1,PERIMETER_BOT_ZN_1_WALL_SOUTH_WINDOW1,PERIMETER_BOT_ZN_1_DAYLREFPT2,1.8060E-002
 Sky Daylight Factors,Intermediate Sky,01/21,PERIMETER_BOT_ZN_1,PERIMETER_BOT_ZN_1_WALL_SOUTH_WINDOW1,PERIMETER_BOT_ZN_1_DAYLREFPT1,1.2523E-002
 Sky Daylight Factors,Intermediate Sky,01/21,PERIMETER_BOT_ZN_1,PERIMETER_BOT_ZN_1_WALL_SOUTH_WINDOW1,PERIMETER_BOT_ZN_1_DAYLREFPT2,1.2563E-002
 Sky Daylight Factors,Overcast Sky,01/21,PERIMETER_BOT_ZN_1,PERIMETER_BOT_ZN_1_WALL_SOUTH_WINDOW1,PERIMETER_BOT_ZN_1_DAYLREFPT1,6.5157E-003
 Sky Daylight Factors,Overcast Sky,01/21,PERIMETER_BOT_ZN_1,PERIMETER_BOT_ZN_1_WALL_SOUTH_WINDOW1,PERIMETER_BOT_ZN_1_DAYLREFPT2,6.5413E-003
 Sky Daylight Factors,Clear Sky,01/21,PERIMETER_BOT_ZN_1,PERIMETER_BOT_ZN_1_WALL_SOUTH_WINDOW2,PERIMETER_BOT_ZN_1_DAYLREFPT1,0.1663
 Sky Daylight Factors,Clear Sky,01/21,PERIMETER_BOT_ZN_1,PERIMETER_BOT_ZN_1_WALL_SOUTH_WINDOW2,PERIMETER_BOT_ZN_1_DAYLREFPT2,7.9054E-002
 Sky Daylight Factors,Clear Turbid Sky,01/21,PERIMETER_BOT_ZN_1,PERIMETER_BOT_ZN_1_WALL_SOUTH_WINDOW2,PERIMETER_BOT_ZN_1_DAYLREFPT1,0.1852
 Sky Daylight Factors,Clear Turbid Sky,01/21,PERIMETER_BOT_ZN_1,PERIMETER_BOT_ZN_1_WALL_SOUTH_WINDOW2,PERIMETER_BOT_ZN_1_DAYLREFPT2,8.5700E-002
 Sky Daylight Factors,Intermediate Sky,01/21,PERIMETER_BOT_ZN_1,PERIMETER_BOT_ZN_1_WALL_SOUTH_WINDOW2,PERIMETER_BOT_ZN_1_DAYLREFPT1,0.1256
 Sky Daylight Factors,Intermediate Sky,01/21,PERIMETER_BOT_ZN_1,PERIMETER_BOT_ZN_1_WALL_SOUTH_WINDOW2,PERIMETER_BOT_ZN_1_DAYLREFPT2,5.2697E-002
 Sky Daylight Factors,Overcast Sky,01/21,PERIMETER_BOT_ZN_1,PERIMETER_BOT_ZN_1_WALL_SOUTH_WINDOW2,PERIMETER_BOT_ZN_1_DAYLREFPT1,5.2783E-002
 Sky Daylight Factors,Overcast Sky,01/21,PERIMETER_BOT_ZN_1,PERIMETER_BOT_ZN_1_WALL_SOUTH_WINDOW2,PERIMETER_BOT_ZN_1_DAYLREFPT2,2.0996E-002
 Sky Daylight Factors,Clear Sky,01/21,PERIMETER_BOT_ZN_1,PERIMETER_BOT_ZN_1_WALL_SOUTH_WINDOW3,PERIMETER_BOT_ZN_1_DAYLREFPT1,1.6721E-002
 Sky Daylight Factors,Clear Sky,01/21,PERIMETER_BOT_ZN_1,PERIMETER_BOT_ZN_1_WALL_SOUTH_WINDOW3,PERIMETER_BOT_ZN_1_DAYLREFPT2,1.6804E-002
 Sky Daylight Factors,Clear Turbid Sky,01/21,PERIMETER_BOT_ZN_1,PERIMETER_BOT_ZN_1_WALL_SOUTH_WINDOW3,PERIMETER_BOT_ZN_1_DAYLREFPT1,1.8014E-002
 Sky Daylight Factors,Clear Turbid Sky,01/21,PERIMETER_BOT_ZN_1,PERIMETER_BOT_ZN_1_WALL_SOUTH_WINDOW3,PERIMETER_BOT_ZN_1_DAYLREFPT2,1.8088E-002
 Sky Daylight Factors,Intermediate Sky,01/21,PERIMETER_BOT_ZN_1,PERIMETER_BOT_ZN_1_WALL_SOUTH_WINDOW3,PERIMETER_BOT_ZN_1_DAYLREFPT1,1.2527E-002
 Sky Daylight Factors,Intermediate Sky,01/21,PERIMETER_BOT_ZN_1,PERIMETER_BOT_ZN_1_WALL_SOUTH_WINDOW3,PERIMETER_BOT_ZN_1_DAYLREFPT2,1.2583E-002
 Sky Daylight Factors,Overcast Sky,01/21,PERIMETER_BOT_ZN_1,PERIMETER_BOT_ZN_1_WALL_SOUTH_WINDOW3,PERIMETER_BOT_ZN_1_DAYLREFPT1,6.5152E-003
 Sky Daylight Factors,Overcast Sky,01/21,PERIMETER_BOT_ZN_1,PERIMETER_BOT_ZN_1_WALL_SOUTH_WINDOW3,PERIMETER_BOT_ZN_1_DAYLREFPT2,6.5408E-003
 Sky Daylight Factors,Clear Sky,01/21,PERIMETER_BOT_ZN_4,PERIMETER_BOT_ZN_4_WALL_WEST_WINDOW1,PERIMETER_BOT_ZN_4_DAYLREFPT1,6.8089E-002
 Sky Daylight Factors,Clear Sky,01/21,PERIMETER_BOT_ZN_4,PERIMETER_BOT_ZN_4_WALL_WEST_WINDOW1,PERIMETER_BOT_ZN_4_DAYLREFPT2,4.3386E-002
 Sky Daylight Factors,Clear Turbid Sky,01/21,PERIMETER_BOT_ZN_4,PERIMETER_BOT_ZN_4_WALL_WEST_WINDOW1,PERIMETER_BOT_ZN_4_DAYLREFPT1,5.9188E-002
 Sky Daylight Factors,Clear Turbid Sky,01/21,PERIMETER_BOT_ZN_4,PERIMETER_BOT_ZN_4_WALL_WEST_WINDOW1,PERIMETER_BOT_ZN_4_DAYLREFPT2,3.7348E-002
 Sky Daylight Factors,Intermediate Sky,01/21,PERIMETER_BOT_ZN_4,PERIMETER_BOT_ZN_4_WALL_WEST_WINDOW1,PERIMETER_BOT_ZN_4_DAYLREFPT1,6.5279E-002
 Sky Daylight Factors,Intermediate Sky,01/21,PERIMETER_BOT_ZN_4,PERIMETER_BOT_ZN_4_WALL_WEST_WINDOW1,PERIMETER_BOT_ZN_4_DAYLREFPT2,3.5939E-002
 Sky Daylight Factors,Overcast Sky,01/21,PERIMETER_BOT_ZN_4,PERIMETER_BOT_ZN_4_WALL_WEST_WINDOW1,PERIMETER_BOT_ZN_4_DAYLREFPT1,6.5172E-002
 Sky Daylight Factors,Overcast Sky,01/21,PERIMETER_BOT_ZN_4,PERIMETER_BOT_ZN_4_WALL_WEST_WINDOW1,PERIMETER_BOT_ZN_4_DAYLREFPT2,3.3592E-002
 Sky Daylight Factors,Clear Sky,01/21,PERIMETER_BOT_ZN_4,PERIMETER_BOT_ZN_4_WALL_WEST_WINDOW2,PERIMETER_BOT_ZN_4_DAYLREFPT1,8.4862E-004
 Sky Daylight Factors,Clear Sky,01/21,PERIMETER_BOT_ZN_4,PERIMETER_BOT_ZN_4_WALL_WEST_WINDOW2,PERIMETER_BOT_ZN_4_DAYLREFPT2,8.5383E-004
 Sky Daylight Factors,Clear Turbid Sky,01/21,PERIMETER_BOT_ZN_4,PERIMETER_BOT_ZN_4_WALL_WEST_WINDOW2,PERIMETER_BOT_ZN_4_DAYLREFPT1,7.5525E-004
 Sky Daylight Factors,Clear Turbid Sky,01/21,PERIMETER_BOT_ZN_4,PERIMETER_BOT_ZN_4_WALL_WEST_WINDOW2,PERIMETER_BOT_ZN_4_DAYLREFPT2,7.6054E-004
 Sky Daylight Factors,Intermediate Sky,01/21,PERIMETER_BOT_ZN_4,PERIMETER_BOT_ZN_4_WALL_WEST_WINDOW2,PERIMETER_BOT_ZN_4_DAYLREFPT1,7.5854E-004
 Sky Daylight Factors,Intermediate Sky,01/21,PERIMETER_BOT_ZN_4,PERIMETER_BOT_ZN_4_WALL_WEST_WINDOW2,PERIMETER_BOT_ZN_4_DAYLREFPT2,7.6127E-004
 Sky Daylight Factors,Overcast Sky,01/21,PERIMETER_BOT_ZN_4,PERIMETER_BOT_ZN_4_WALL_WEST_WINDOW2,PERIMETER_BOT_ZN_4_DAYLREFPT1,7.5259E-004
 Sky Daylight Factors,Overcast Sky,01/21,PERIMETER_BOT_ZN_4,PERIMETER_BOT_ZN_4_WALL_WEST_WINDOW2,PERIMETER_BOT_ZN_4_DAYLREFPT2,7.5347E-004
 Sky Daylight Factors,Clear Sky,01/21,PERIMETER_MID_ZN_3,PERIMETER_MID_ZN_3_WALL_NORTH_WINDOW,PERIMETER_MID_ZN_3_DAYLREFPT1,5.7162E-002
 Sky Daylight Factors,Clear Sky,01/21,PERIMETER_MID_ZN_3,PERIMETER_MID_ZN_3_WALL_NORTH_WINDOW,PERIMETER_MID_ZN_3_DAYLREFPT2,3.9871E-002
 Sky Daylight Factors,Clear Turbid Sky,01/21,PERIMETER_MID_ZN_3,PERIMETER_MID_ZN_3_WALL_NORTH_WINDOW,PERIMETER_MID_ZN_3_DAYLREFPT1,4.5208E-002
 Sky Daylight Factors,Clear Turbid Sky,01/21,PERIMETER_MID_ZN_3,PERIMETER_MID_ZN_3_WALL_NORTH_WINDOW,PERIMETER_MID_ZN_3_DAYLREFPT2,3.1530E-002
 Sky Daylight Factors,Intermediate Sky,01/21,PERIMETER_MID_ZN_3,PERIMETER_MID_ZN_3_WALL_NORTH_WINDOW,PERIMETER_MID_ZN_3_DAYLREFPT1,4.1791E-002
 Sky Daylight Factors,Intermediate Sky,01/21,PERIMETER_MID_ZN_3,PERIMETER_MID_ZN_3_WALL_NORTH_WINDOW,PERIMETER_MID_ZN_3_DAYLREFPT2,2.4371E-002
 Sky Daylight Factors,Overcast Sky,01/21,PERIMETER_MID_ZN_3,PERIMETER_MID_ZN_3_WALL_NORTH_WINDOW,PERIMETER_MID_ZN_3_DAYLREFPT1,6.5385E-002
 Sky Daylight Factors,Overcast Sky,01/21,PERIMETER_MID_ZN_3,PERIMETER_MID_ZN_3_WALL_NORTH_WINDOW,PERIMETER_MID_ZN_3_DAYLREFPT2,3.4459E-002
 Sky Daylight Factors,Clear Sky,01/21,PERIMETER_MID_ZN_2,PERIMETER_MID_ZN_2_WALL_EAST_WINDOW,PERIMETER_MID_ZN_2_DAYLREFPT1,9.5103E-002
 Sky Daylight Factors,Clear Sky,01/21,PERIMETER_MID_ZN_2,PERIMETER_MID_ZN_2_WALL_EAST_WINDOW,PERIMETER_MID_ZN_2_DAYLREFPT2,5.8175E-002
 Sky Daylight Factors,Clear Turbid Sky,01/21,PERIMETER_MID_ZN_2,PERIMETER_MID_ZN_2_WALL_EAST_WINDOW,PERIMETER_MID_ZN_2_DAYLREFPT1,9.2306E-002
 Sky Daylight Factors,Clear Turbid Sky,01/21,PERIMETER_MID_ZN_2,PERIMETER_MID_ZN_2_WALL_EAST_WINDOW,PERIMETER_MID_ZN_2_DAYLREFPT2,5.5213E-002
 Sky Daylight Factors,Intermediate Sky,01/21,PERIMETER_MID_ZN_2,PERIMETER_MID_ZN_2_WALL_EAST_WINDOW,PERIMETER_MID_ZN_2_DAYLREFPT1,9.0075E-002
 Sky Daylight Factors,Intermediate Sky,01/21,PERIMETER_MID_ZN_2,PERIMETER_MID_ZN_2_WALL_EAST_WINDOW,PERIMETER_MID_ZN_2_DAYLREFPT2,4.9308E-002
 Sky Daylight Factors,Overcast Sky,01/21,PERIMETER_MID_ZN_2,PERIMETER_MID_ZN_2_WALL_EAST_WINDOW,PERIMETER_MID_ZN_2_DAYLREFPT1,6.5888E-002
 Sky Daylight Factors,Overcast Sky,01/21,PERIMETER_MID_ZN_2,PERIMETER_MID_ZN_2_WALL_EAST_WINDOW,PERIMETER_MID_ZN_2_DAYLREFPT2,3.4751E-002
 Sky Daylight Factors,Clear Sky,01/21,PERIMETER_MID_ZN_1,PERIMETER_MID_ZN_1_WALL_SOUTH_WINDOW,PERIMETER_MID_ZN_1_DAYLREFPT1,0.1949
 Sky Daylight Factors,Clear Sky,01/21,PERIMETER_MID_ZN_1,PERIMETER_MID_ZN_1_WALL_SOUTH_WINDOW,PERIMETER_MID_ZN_1_DAYLREFPT2,0.1123
 Sky Daylight Factors,Clear Turbid Sky,01/21,PERIMETER_MID_ZN_1,PERIMETER_MID_ZN_1_WALL_SOUTH_WINDOW,PERIMETER_MID_ZN_1_DAYLREFPT1,0.2159
 Sky Daylight Factors,Clear Turbid Sky,01/21,PERIMETER_MID_ZN_1,PERIMETER_MID_ZN_1_WALL_SOUTH_WINDOW,PERIMETER_MID_ZN_1_DAYLREFPT2,0.1215
 Sky Daylight Factors,Intermediate Sky,01/21,PERIMETER_MID_ZN_1,PERIMETER_MID_ZN_1_WALL_SOUTH_WINDOW,PERIMETER_MID_ZN_1_DAYLREFPT1,0.1480
 Sky Daylight Factors,Intermediate Sky,01/21,PERIMETER_MID_ZN_1,PERIMETER_MID_ZN_1_WALL_SOUTH_WINDOW,PERIMETER_MID_ZN_1_DAYLREFPT2,7.7943E-002
 Sky Daylight Factors,Overcast Sky,01/21,PERIMETER_MID_ZN_1,PERIMETER_MID_ZN_1_WALL_SOUTH_WINDOW,PERIMETER_MID_ZN_1_DAYLREFPT1,6.5385E-002
 Sky Daylight Factors,Overcast Sky,01/21,PERIMETER_MID_ZN_1,PERIMETER_MID_ZN_1_WALL_SOUTH_WINDOW,PERIMETER_MID_ZN_1_DAYLREFPT2,3.4459E-002
 Sky Daylight Factors,Clear Sky,01/21,PERIMETER_MID_ZN_4,PERIMETER_MID_ZN_4_WALL_WEST_WINDOW,PERIMETER_MID_ZN_4_DAYLREFPT1,6.8168E-002
 Sky Daylight Factors,Clear Sky,01/21,PERIMETER_MID_ZN_4,PERIMETER_MID_ZN_4_WALL_WEST_WINDOW,PERIMETER_MID_ZN_4_DAYLREFPT2,4.4367E-002
 Sky Daylight Factors,Clear Turbid Sky,01/21,PERIMETER_MID_ZN_4,PERIMETER_MID_ZN_4_WALL_WEST_WINDOW,PERIMETER_MID_ZN_4_DAYLREFPT1,5.9414E-002
 Sky Daylight Factors,Clear Turbid Sky,01/21,PERIMETER_MID_ZN_4,PERIMETER_MID_ZN_4_WALL_WEST_WINDOW,PERIMETER_MID_ZN_4_DAYLREFPT2,3.8317E-002
 Sky Daylight Factors,Intermediate Sky,01/21,PERIMETER_MID_ZN_4,PERIMETER_MID_ZN_4_WALL_WEST_WINDOW,PERIMETER_MID_ZN_4_DAYLREFPT1,6.5833E-002
 Sky Daylight Factors,Intermediate Sky,01/21,PERIMETER_MID_ZN_4,PERIMETER_MID_ZN_4_WALL_WEST_WINDOW,PERIMETER_MID_ZN_4_DAYLREFPT2,3.7047E-002
 Sky Daylight Factors,Overcast Sky,01/21,PERIMETER_MID_ZN_4,PERIMETER_MID_ZN_4_WALL_WEST_WINDOW,PERIMETER_MID_ZN_4_DAYLREFPT1,6.5888E-002
 Sky Daylight Factors,Overcast Sky,01/21,PERIMETER_MID_ZN_4,PERIMETER_MID_ZN_4_WALL_WEST_WINDOW,PERIMETER_MID_ZN_4_DAYLREFPT2,3.4752E-002
! <Zone Sizing Information>, Zone Name, Load Type, Calc Des Load {W}, User Des Load {W}, Calc Des Air Flow Rate {m3/s}, User Des Air Flow Rate {m3/s}, Design Day Name, Date/Time of Peak, Temperature at Peak {C}, Humidity Ratio at Peak {kgWater/kgDryAir}, Floor Area {m2}, # Occupants, Calc Outdoor Air Flow Rate {m3/s}, Calc DOAS Heat Addition Rate {W}
 Zone Sizing Information, CORE_BOTTOM, Cooling, 51155.61216, 51155.61216, 3.83939, 3.83939, NEW.YORK-JOHN.F.KENNEDY.INTL.AP_NY_USA ANN CLG .4% CONDNS DB=>MWB, 7/21 08:00:00, 26.62400, 1.41098E-002, 983.53657, 52.93867, 0.42466, 0.00000
 Zone Sizing Information, CORE_BOTTOM, Heating, 12463.07389, 12463.07389, 0.54669, 0.54669, NEW.YORK-JOHN.F.KENNEDY.INTL.AP_NY_USA ANN HTG 99.6% CONDNS DB, 1/21 08:00:00, -10.70000, 1.50390E-003, 983.53657, 52.93867, 0.42466, 0.00000
 Zone Sizing Information, CORE_MID, Cooling, 31073.44446, 31073.44446, 2.34151, 2.34151, NEW.YORK-JOHN.F.KENNEDY.INTL.AP_NY_USA ANN CLG .4% CONDNS DB=>MWB, 7/21 08:06:00, 26.76460, 1.41101E-002, 983.53657, 52.93867, 0.42466, 0.00000
 Zone Sizing Information, CORE_MID, Heating, 14499.33689, 14499.33689, 0.63717, 0.63717, NEW.YORK-JOHN.F.KENNEDY.INTL.AP_NY_USA ANN HTG 99.6% CONDNS DB, 1/21 08:00:00, -10.70000, 1.50390E-003, 983.53657, 52.93867, 0.42466, 0.00000
 Zone Sizing Information, CORE_TOP, Cooling, 30588.80974, 30588.80974, 2.30499, 2.30499, NEW.YORK-JOHN.F.KENNEDY.INTL.AP_NY_USA ANN CLG .4% CONDNS DB=>MWB, 7/21 08:06:00, 26.76460, 1.41101E-002, 983.53657, 52.93867, 0.42466, 0.00000
 Zone Sizing Information, CORE_TOP, Heating, 25030.40922, 25030.40922, 1.10488, 1.10488, NEW.YORK-JOHN.F.KENNEDY.INTL.AP_NY_USA ANN HTG 99.6% CONDNS DB, 1/21 08:00:00, -10.70000, 1.50390E-003, 983.53657, 52.93867, 0.42466, 0.00000
 Zone Sizing Information, PERIMETER_TOP_ZN_3, Cooling, 8572.78167, 8572.78167, 0.64600, 0.64600, NEW.YORK-JOHN.F.KENNEDY.INTL.AP_NY_USA ANN CLG .4% CONDNS DB=>MWB, 7/21 15:15:00, 31.98900, 1.41194E-002, 207.33814, 11.15994, 8.95230E-002, 0.00000
 Zone Sizing Information, PERIMETER_TOP_ZN_3, Heating, 11524.91398, 11524.91398, 0.51032, 0.51032, NEW.YORK-JOHN.F.KENNEDY.INTL.AP_NY_USA ANN HTG 99.6% CONDNS DB, 1/21 08:00:00, -10.70000, 1.50390E-003, 207.33814, 11.15994, 8.95230E-002, 0.00000
 Zone Sizing Information, PERIMETER_TOP_ZN_2, Cooling, 10288.79453, 10288.79453, 0.77531, 0.77531, NEW.YORK-JOHN.F.KENNEDY.INTL.AP_NY_USA ANN CLG .4% CONDNS DB=>MWB, 7/21 10:36:00, 29.95400, 1.41158E-002, 131.26219, 7.06516, 5.66755E-002, 0.00000
 Zone Sizing Information, PERIMETER_TOP_ZN_2, Heating, 7493.56834, 7493.56834, 0.33183, 0.33183, NEW.YORK-JOHN.F.KENNEDY.INTL.AP_NY_USA ANN HTG 99.6% CONDNS DB, 1/21 08:00:00, -10.70000, 1.50390E-003, 131.26219, 7.06516, 5.66755E-002, 0.00000
 Zone Sizing Information, PERIMETER_TOP_ZN_1, Cooling, 10655.46309, 10655.46309, 0.80294, 0.80294, NEW.YORK-JOHN.F.KENNEDY.INTL.AP_NY_USA ANN CLG .4% CONDNS DB=>MWB, 7/21 14:15:00, 32.10000, 1.41196E-002, 207.33814, 11.15994, 8.95230E-002, 0.00000
 Zone Sizing Information, PERIMETER_TOP_ZN_1, Heating, 11456.23495, 11456.23495, 0.50727, 0.50727, NEW.YORK-JOHN.F.KENNEDY.INTL.AP_NY_USA ANN HTG 99.6% CONDNS DB, 1/21 08:00:00, -10.70000, 1.50390E-003, 207.33814, 11.15994, 8.95230E-002, 0.00000
 Zone Sizing Information, PERIMETER_TOP_ZN_4, Cooling, 10794.67623, 10794.67623, 0.81343, 0.81343, NEW.YORK-JOHN.F.KENNEDY.INTL.AP_NY_USA ANN CLG .4% CONDNS DB=>MWB, 7/21 17:42:00, 30.54600, 1.41168E-002, 131.25358, 7.06470, 5.66718E-002, 0.00000
 Zone Sizing Information, PERIMETER_TOP_ZN_4, Heating, 7570.18354, 7570.18354, 0.33523, 0.33523, NEW.YORK-JOHN.F.KENNEDY.INTL.AP_NY_USA ANN HTG 99.6% CONDNS DB, 1/21 08:00:00, -10.70000, 1.50390E-003, 131.25358, 7.06470, 5.66718E-002, 0.00000
 Zone Sizing Information, PERIMETER_BOT_ZN_3, Cooling, 7967.01682, 7967.01682, 0.60035, 0.60035, NEW.YORK-JOHN.F.KENNEDY.INTL.AP_NY_USA ANN CLG .4% CONDNS DB=>MWB, 7/21 08:06:00, 26.76460, 1.41101E-002, 207.33814, 11.15994, 8.95230E-002, 0.00000
 Zone Sizing Information, PERIMETER_BOT_ZN_3, Heating, 8907.79737, 8907.79737, 0.39413, 0.39413, NEW.YORK-JOHN.F.KENNEDY.INTL.AP_NY_USA ANN HTG 99.6% CONDNS DB, 1/21 08:00:00, -10.70000, 1.50390E-003, 207.33814, 11.15994, 8.95230E-002, 0.00000
 Zone Sizing Information, PERIMETER_BOT_ZN_2, Cooling, 10205.08384, 10205.08384, 0.76900, 0.76900, NEW.YORK-JOHN.F.KENNEDY.INTL.AP_NY_USA ANN CLG .4% CONDNS DB=>MWB, 7/21 10:24:00, 29.73200, 1.41154E-002, 131.26219, 7.06516, 5.66755E-002, 0.00000
 Zone Sizing Information, PERIMETER_BOT_ZN_2, Heating, 5832.79148, 5832.79148, 0.25811, 0.25811, NEW.YORK-JOHN.F.KENNEDY.INTL.AP_NY_USA ANN HTG 99.6% CONDNS DB, 1/21 08:00:00, -10.70000, 1.50390E-003, 131.26219, 7.06516, 5.66755E-002, 0.00000
 Zone Sizing Information, PERIMETER_BOT_ZN_1, Cooling, 9809.91547, 9809.91547, 0.73922, 0.73922, NEW.YORK-JOHN.F.KENNEDY.INTL.AP_NY_USA ANN CLG .4% CONDNS DB=>MWB, 7/21 14:03:00, 32.10000, 1.41196E-002, 207.33814, 11.15994, 8.95230E-002, 0.00000
 Zone Sizing Information, PERIMETER_BOT_ZN_1, Heating, 8878.55195, 8878.55195, 0.39283, 0.39283, NEW.YORK-JOHN.F.KENNEDY.INTL.AP_NY_USA ANN HTG 99.6% CONDNS DB, 1/21 08:00:00, -10.70000, 1.50390E-003, 207.33814, 11.15994, 8.95230E-002, 0.00000
 Zone Sizing Information, PERIMETER_BOT_ZN_4, Cooling, 10280.99435, 10280.99435, 0.77472, 0.77472, NEW.YORK-JOHN.F.KENNEDY.INTL.AP_NY_USA ANN CLG .4% CONDNS DB=>MWB, 7/21 17:48:00, 30.47200, 1.41167E-002, 131.25358, 7.06470, 5.66718E-002, 0.00000
 Zone Sizing Information, PERIMETER_BOT_ZN_4, Heating, 5903.12743, 5903.12743, 0.26123, 0.26123, NEW.YORK-JOHN.F.KENNEDY.INTL.AP_NY_USA ANN HTG 99.6% CONDNS DB, 1/21 08:00:00, -10.70000, 1.50390E-003, 131.25358, 7.06470, 5.66718E-002, 0.00000
 Zone Sizing Information, PERIMETER_MID_ZN_3, Cooling, 7822.33989, 7822.33989, 0.58945, 0.58945, NEW.YORK-JOHN.F.KENNEDY.INTL.AP_NY_USA ANN CLG .4% CONDNS DB=>MWB, 7/21 08:06:00, 26.76460, 1.41101E-002, 207.33814, 11.15994, 8.95230E-002, 0.00000
 Zone Sizing Information, PERIMETER_MID_ZN_3, Heating, 9406.55137, 9406.55137, 0.41628, 0.41628, NEW.YORK-JOHN.F.KENNEDY.INTL.AP_NY_USA ANN HTG 99.6% CONDNS DB, 1/21 08:00:00, -10.70000, 1.50390E-003, 207.33814, 11.15994, 8.95230E-002, 0.00000
 Zone Sizing Information, PERIMETER_MID_ZN_2, Cooling, 10034.32295, 10034.32295, 0.75613, 0.75613, NEW.YORK-JOHN.F.KENNEDY.INTL.AP_NY_USA ANN CLG .4% CONDNS DB=>MWB, 7/21 10:27:00, 29.78750, 1.41155E-002, 131.26219, 7.06516, 5.66755E-002, 0.00000
 Zone Sizing Information, PERIMETER_MID_ZN_2, Heating, 6162.91616, 6162.91616, 0.27277, 0.27277, NEW.YORK-JOHN.F.KENNEDY.INTL.AP_NY_USA ANN HTG 99.6% CONDNS DB, 1/21 08:00:00, -10.70000, 1.50390E-003, 131.26219, 7.06516, 5.66755E-002, 0.00000
 Zone Sizing Information, PERIMETER_MID_ZN_1, Cooling, 9611.40612, 9611.40612, 0.72426, 0.72426, NEW.YORK-JOHN.F.KENNEDY.INTL.AP_NY_USA ANN CLG .4% CONDNS DB=>MWB, 7/21 14:03:00, 32.10000, 1.41196E-002, 207.33814, 11.15994, 8.95230E-002, 0.00000
 Zone Sizing Information, PERIMETER_MID_ZN_1, Heating, 9363.35295, 9363.35295, 0.41436, 0.41436, NEW.YORK-JOHN.F.KENNEDY.INTL.AP_NY_USA ANN HTG 99.6% CONDNS DB, 1/21 08:00:00, -10.70000, 1.50390E-003, 207.33814, 11.15994, 8.95230E-002, 0.00000
 Zone Sizing Information, PERIMETER_MID_ZN_4, Cooling, 10130.01164, 10130.01164, 0.76334, 0.76334, NEW.YORK-JOHN.F.KENNEDY.INTL.AP_NY_USA ANN CLG .4% CONDNS DB=>MWB, 7/21 17:48:00, 30.47200, 1.41167E-002, 131.25358, 7.06470, 5.66718E-002, 0.00000
 Zone Sizing Information, PERIMETER_MID_ZN_4, Heating, 6238.04227, 6238.04227, 0.27610, 0.27610, NEW.YORK-JOHN.F.KENNEDY.INTL.AP_NY_USA ANN HTG 99.6% CONDNS DB, 1/21 08:00:00, -10.70000, 1.50390E-003, 131.25358, 7.06470, 5.66718E-002, 0.00000
! <System Sizing Information>, System Name, Load Type, Peak Load Kind, User Design Capacity, Calc Des Air Flow Rate [m3/s], User Des Air Flow Rate [m3/s], Design Day Name, Date/Time of Peak
 System Sizing Information, DOAS, Cooling, Sensible, 316732.45, 17.24006, 17.24006, NEW.YORK-JOHN.F.KENNEDY.INTL.AP_NY_USA ANN CLG .4% CONDNS DB=>MWB, 7/21 00:00:00
 System Sizing Information, DOAS, Heating, Sensible, 177904.82, 6.65923, 6.65923, NEW.YORK-JOHN.F.KENNEDY.INTL.AP_NY_USA ANN HTG 99.6% CONDNS DB, 1/21 08:00:00
! <Component Sizing Information>, Component Type, Component Name, Input Field Description, Value
 Component Sizing Information, AirTerminal:SingleDuct:VAV:NoReheat, CORE_BOT_DOAS_AIRTERMINAL, Design Size Maximum Air Flow Rate [m3/s], 3.83939
 Component Sizing Information, AirTerminal:SingleDuct:VAV:NoReheat, CORE_BOT_DOAS_AIRTERMINAL, Design Size Constant Minimum Air Flow Fraction, 0.19520
 Component Sizing Information, AirTerminal:SingleDuct:VAV:NoReheat, CORE_BOT_DOAS_AIRTERMINAL, User-Specified Constant Minimum Air Flow Fraction, 1.00000
 Component Sizing Information, AirTerminal:SingleDuct:VAV:NoReheat, CORE_BOT_DOAS_AIRTERMINAL, Design Size Minimum Air Flow Rate [m3/s], 3.83939
 Component Sizing Information, ZoneHVAC:LowTemperatureRadiant:ConstantFlow, CORE_BOT_LOTEMP, Design Size Maximum Water Flow [m3/s], 1.82716E-003
 Component Sizing Information, ZoneHVAC:LowTemperatureRadiant:ConstantFlow, CORE_BOT_LOTEMP, Design Size Hydronic Tubing Length [m], 6453.65205
 Component Sizing Information, AirTerminal:SingleDuct:VAV:NoReheat, CORE_MID_DOAS_AIRTERMINAL, Design Size Maximum Air Flow Rate [m3/s], 2.34151
 Component Sizing Information, AirTerminal:SingleDuct:VAV:NoReheat, CORE_MID_DOAS_AIRTERMINAL, Design Size Constant Minimum Air Flow Fraction, 0.32007
 Component Sizing Information, AirTerminal:SingleDuct:VAV:NoReheat, CORE_MID_DOAS_AIRTERMINAL, User-Specified Constant Minimum Air Flow Fraction, 1.00000
 Component Sizing Information, AirTerminal:SingleDuct:VAV:NoReheat, CORE_MID_DOAS_AIRTERMINAL, Design Size Minimum Air Flow Rate [m3/s], 2.34151
 Component Sizing Information, ZoneHVAC:LowTemperatureRadiant:ConstantFlow, CORE_MID_LOTEMP, Design Size Maximum Water Flow [m3/s], 1.10987E-003
 Component Sizing Information, ZoneHVAC:LowTemperatureRadiant:ConstantFlow, CORE_MID_LOTEMP, Design Size Hydronic Tubing Length [m], 6453.65205
 Component Sizing Information, AirTerminal:SingleDuct:VAV:NoReheat, CORE_TOP_DOAS_AIRTERMINAL, Design Size Maximum Air Flow Rate [m3/s], 2.30499
 Component Sizing Information, AirTerminal:SingleDuct:VAV:NoReheat, CORE_TOP_DOAS_AIRTERMINAL, Design Size Constant Minimum Air Flow Fraction, 0.32514
 Component Sizing Information, AirTerminal:SingleDuct:VAV:NoReheat, CORE_TOP_DOAS_AIRTERMINAL, User-Specified Constant Minimum Air Flow Fraction, 1.00000
 Component Sizing Information, AirTerminal:SingleDuct:VAV:NoReheat, CORE_TOP_DOAS_AIRTERMINAL, Design Size Minimum Air Flow Rate [m3/s], 2.30499
 Component Sizing Information, ZoneHVAC:LowTemperatureRadiant:ConstantFlow, CORE_TOP_LOTEMP, Design Size Maximum Water Flow [m3/s], 1.09256E-003
 Component Sizing Information, ZoneHVAC:LowTemperatureRadiant:ConstantFlow, CORE_TOP_LOTEMP, Design Size Hydronic Tubing Length [m], 6453.65205
 Component Sizing Information, ZoneHVAC:LowTemperatureRadiant:ConstantFlow, PERI3_TOP_LOTEMP, Design Size Maximum Water Flow [m3/s], 3.06200E-004
 Component Sizing Information, ZoneHVAC:LowTemperatureRadiant:ConstantFlow, PERI3_TOP_LOTEMP, User-Specified Maximum Water Flow [m3/s], 2.15245E-004
 Component Sizing Information, ZoneHVAC:LowTemperatureRadiant:ConstantFlow, PERI3_TOP_LOTEMP, Design Size Hydronic Tubing Length [m], 1360.48649
 Component Sizing Information, AirTerminal:SingleDuct:VAV:NoReheat, PERI3_TOP_DOAS_AIRTERMINAL, Design Size Maximum Air Flow Rate [m3/s], 0.64600
 Component Sizing Information, AirTerminal:SingleDuct:VAV:NoReheat, PERI3_TOP_DOAS_AIRTERMINAL, Design Size Constant Minimum Air Flow Fraction, 0.24457
 Component Sizing Information, AirTerminal:SingleDuct:VAV:NoReheat, PERI3_TOP_DOAS_AIRTERMINAL, User-Specified Constant Minimum Air Flow Fraction, 1.00000
 Component Sizing Information, AirTerminal:SingleDuct:VAV:NoReheat, PERI3_TOP_DOAS_AIRTERMINAL, Design Size Minimum Air Flow Rate [m3/s], 0.64600
 Component Sizing Information, AirTerminal:SingleDuct:VAV:NoReheat, PERI2_TOP_DOAS_AIRTERMINAL, Design Size Maximum Air Flow Rate [m3/s], 0.77531
 Component Sizing Information, AirTerminal:SingleDuct:VAV:NoReheat, PERI2_TOP_DOAS_AIRTERMINAL, Design Size Constant Minimum Air Flow Fraction, 0.12901
 Component Sizing Information, AirTerminal:SingleDuct:VAV:NoReheat, PERI2_TOP_DOAS_AIRTERMINAL, User-Specified Constant Minimum Air Flow Fraction, 1.00000
 Component Sizing Information, AirTerminal:SingleDuct:VAV:NoReheat, PERI2_TOP_DOAS_AIRTERMINAL, Design Size Minimum Air Flow Rate [m3/s], 0.77531
 Component Sizing Information, ZoneHVAC:LowTemperatureRadiant:ConstantFlow, PERI2_TOP_LOTEMP, Design Size Maximum Water Flow [m3/s], 3.67492E-004
 Component Sizing Information, ZoneHVAC:LowTemperatureRadiant:ConstantFlow, PERI2_TOP_LOTEMP, Design Size Hydronic Tubing Length [m], 861.30049
 Component Sizing Information, AirTerminal:SingleDuct:VAV:NoReheat, PERI1_TOP_DOAS_AIRTERMINAL, Design Size Maximum Air Flow Rate [m3/s], 0.80294
 Component Sizing Information, AirTerminal:SingleDuct:VAV:NoReheat, PERI1_TOP_DOAS_AIRTERMINAL, Design Size Constant Minimum Air Flow Fraction, 0.19677
 Component Sizing Information, AirTerminal:SingleDuct:VAV:NoReheat, PERI1_TOP_DOAS_AIRTERMINAL, User-Specified Constant Minimum Air Flow Fraction, 1.00000
 Component Sizing Information, AirTerminal:SingleDuct:VAV:NoReheat, PERI1_TOP_DOAS_AIRTERMINAL, Design Size Minimum Air Flow Rate [m3/s], 0.80294
 Component Sizing Information, ZoneHVAC:LowTemperatureRadiant:ConstantFlow, PERI1_BOT_LOTEMP, Design Size Maximum Water Flow [m3/s], 3.80588E-004
 Component Sizing Information, ZoneHVAC:LowTemperatureRadiant:ConstantFlow, PERI1_BOT_LOTEMP, Design Size Hydronic Tubing Length [m], 1360.48649
 Component Sizing Information, AirTerminal:SingleDuct:VAV:NoReheat, PERI4_TOP_DOAS_AIRTERMINAL, Design Size Maximum Air Flow Rate [m3/s], 0.81343
 Component Sizing Information, AirTerminal:SingleDuct:VAV:NoReheat, PERI4_TOP_DOAS_AIRTERMINAL, Design Size Constant Minimum Air Flow Fraction, 0.12295
 Component Sizing Information, AirTerminal:SingleDuct:VAV:NoReheat, PERI4_TOP_DOAS_AIRTERMINAL, User-Specified Constant Minimum Air Flow Fraction, 1.00000
 Component Sizing Information, AirTerminal:SingleDuct:VAV:NoReheat, PERI4_TOP_DOAS_AIRTERMINAL, Design Size Minimum Air Flow Rate [m3/s], 0.81343
 Component Sizing Information, ZoneHVAC:LowTemperatureRadiant:ConstantFlow, PERI4_TOP_LOTEMP, Design Size Maximum Water Flow [m3/s], 3.85561E-004
 Component Sizing Information, ZoneHVAC:LowTemperatureRadiant:ConstantFlow, PERI4_TOP_LOTEMP, Design Size Hydronic Tubing Length [m], 861.24399
 Component Sizing Information, AirTerminal:SingleDuct:VAV:NoReheat, PERI3_BOT_DOAS_AIRTERMINAL, Design Size Maximum Air Flow Rate [m3/s], 0.60035
 Component Sizing Information, AirTerminal:SingleDuct:VAV:NoReheat, PERI3_BOT_DOAS_AIRTERMINAL, Design Size Constant Minimum Air Flow Fraction, 0.26316
 Component Sizing Information, AirTerminal:SingleDuct:VAV:NoReheat, PERI3_BOT_DOAS_AIRTERMINAL, User-Specified Constant Minimum Air Flow Fraction, 1.00000
 Component Sizing Information, AirTerminal:SingleDuct:VAV:NoReheat, PERI3_BOT_DOAS_AIRTERMINAL, Design Size Minimum Air Flow Rate [m3/s], 0.60035
 Component Sizing Information, ZoneHVAC:LowTemperatureRadiant:ConstantFlow, PERI3_BOT_LOTEMP, Design Size Maximum Water Flow [m3/s], 2.84563E-004
 Component Sizing Information, ZoneHVAC:LowTemperatureRadiant:ConstantFlow, PERI3_BOT_LOTEMP, Design Size Hydronic Tubing Length [m], 1360.48649
 Component Sizing Information, AirTerminal:SingleDuct:VAV:NoReheat, PERI2_BOT_DOAS_AIRTERMINAL, Design Size Maximum Air Flow Rate [m3/s], 0.76900
 Component Sizing Information, AirTerminal:SingleDuct:VAV:NoReheat, PERI2_BOT_DOAS_AIRTERMINAL, Design Size Constant Minimum Air Flow Fraction, 0.13007
 Component Sizing Information, AirTerminal:SingleDuct:VAV:NoReheat, PERI2_BOT_DOAS_AIRTERMINAL, User-Specified Constant Minimum Air Flow Fraction, 1.00000
 Component Sizing Information, AirTerminal:SingleDuct:VAV:NoReheat, PERI2_BOT_DOAS_AIRTERMINAL, Design Size Minimum Air Flow Rate [m3/s], 0.76900
 Component Sizing Information, ZoneHVAC:LowTemperatureRadiant:ConstantFlow, PERI2_BOT_LOTEMP, Design Size Maximum Water Flow [m3/s], 3.64502E-004
 Component Sizing Information, ZoneHVAC:LowTemperatureRadiant:ConstantFlow, PERI2_BOT_LOTEMP, Design Size Hydronic Tubing Length [m], 861.30049
 Component Sizing Information, AirTerminal:SingleDuct:VAV:NoReheat, PERI1_BOT_DOAS_AIRTERMINAL, Design Size Maximum Air Flow Rate [m3/s], 0.73922
 Component Sizing Information, AirTerminal:SingleDuct:VAV:NoReheat, PERI1_BOT_DOAS_AIRTERMINAL, Design Size Constant Minimum Air Flow Fraction, 0.21373
 Component Sizing Information, AirTerminal:SingleDuct:VAV:NoReheat, PERI1_BOT_DOAS_AIRTERMINAL, User-Specified Constant Minimum Air Flow Fraction, 1.00000
 Component Sizing Information, AirTerminal:SingleDuct:VAV:NoReheat, PERI1_BOT_DOAS_AIRTERMINAL, Design Size Minimum Air Flow Rate [m3/s], 0.73922
 Component Sizing Information, ZoneHVAC:LowTemperatureRadiant:ConstantFlow, PERI1_TOP_LOTEMP, Design Size Maximum Water Flow [m3/s], 3.89514E-004
 Component Sizing Information, ZoneHVAC:LowTemperatureRadiant:ConstantFlow, PERI1_TOP_LOTEMP, Design Size Hydronic Tubing Length [m], 1360.48649
 Component Sizing Information, AirTerminal:SingleDuct:VAV:NoReheat, PERI4_BOT_DOAS_AIRTERMINAL, Design Size Maximum Air Flow Rate [m3/s], 0.77472
 Component Sizing Information, AirTerminal:SingleDuct:VAV:NoReheat, PERI4_BOT_DOAS_AIRTERMINAL, Design Size Constant Minimum Air Flow Fraction, 0.12910
 Component Sizing Information, AirTerminal:SingleDuct:VAV:NoReheat, PERI4_BOT_DOAS_AIRTERMINAL, User-Specified Constant Minimum Air Flow Fraction, 1.00000
 Component Sizing Information, AirTerminal:SingleDuct:VAV:NoReheat, PERI4_BOT_DOAS_AIRTERMINAL, Design Size Minimum Air Flow Rate [m3/s], 0.77472
 Component Sizing Information, ZoneHVAC:LowTemperatureRadiant:ConstantFlow, PERI4_BOT_LOTEMP, Design Size Maximum Water Flow [m3/s], 3.67213E-004
 Component Sizing Information, ZoneHVAC:LowTemperatureRadiant:ConstantFlow, PERI4_BOT_LOTEMP, Design Size Hydronic Tubing Length [m], 861.24399
 Component Sizing Information, AirTerminal:SingleDuct:VAV:NoReheat, PERI3_MID_DOAS_AIRTERMINAL, Design Size Maximum Air Flow Rate [m3/s], 0.58945
 Component Sizing Information, AirTerminal:SingleDuct:VAV:NoReheat, PERI3_MID_DOAS_AIRTERMINAL, Design Size Constant Minimum Air Flow Fraction, 0.26803
 Component Sizing Information, AirTerminal:SingleDuct:VAV:NoReheat, PERI3_MID_DOAS_AIRTERMINAL, User-Specified Constant Minimum Air Flow Fraction, 1.00000
 Component Sizing Information, AirTerminal:SingleDuct:VAV:NoReheat, PERI3_MID_DOAS_AIRTERMINAL, Design Size Minimum Air Flow Rate [m3/s], 0.58945
 Component Sizing Information, ZoneHVAC:LowTemperatureRadiant:ConstantFlow, PERI3_MID_LOTEMP, Design Size Maximum Water Flow [m3/s], 2.79396E-004
 Component Sizing Information, ZoneHVAC:LowTemperatureRadiant:ConstantFlow, PERI3_MID_LOTEMP, Design Size Hydronic Tubing Length [m], 1360.48649
 Component Sizing Information, AirTerminal:SingleDuct:VAV:NoReheat, PERI2_MID_DOAS_AIRTERMINAL, Design Size Maximum Air Flow Rate [m3/s], 0.75613
 Component Sizing Information, AirTerminal:SingleDuct:VAV:NoReheat, PERI2_MID_DOAS_AIRTERMINAL, Design Size Constant Minimum Air Flow Fraction, 0.13228
 Component Sizing Information, AirTerminal:SingleDuct:VAV:NoReheat, PERI2_MID_DOAS_AIRTERMINAL, User-Specified Constant Minimum Air Flow Fraction, 1.00000
 Component Sizing Information, AirTerminal:SingleDuct:VAV:NoReheat, PERI2_MID_DOAS_AIRTERMINAL, Design Size Minimum Air Flow Rate [m3/s], 0.75613
 Component Sizing Information, ZoneHVAC:LowTemperatureRadiant:ConstantFlow, PERI2_MID_LOTEMP, Design Size Maximum Water Flow [m3/s], 3.58403E-004
 Component Sizing Information, ZoneHVAC:LowTemperatureRadiant:ConstantFlow, PERI2_MID_LOTEMP, Design Size Hydronic Tubing Length [m], 861.30049
 Component Sizing Information, AirTerminal:SingleDuct:VAV:NoReheat, PERI1_MID_DOAS_AIRTERMINAL, Design Size Maximum Air Flow Rate [m3/s], 0.72426
 Component Sizing Information, AirTerminal:SingleDuct:VAV:NoReheat, PERI1_MID_DOAS_AIRTERMINAL, Design Size Constant Minimum Air Flow Fraction, 0.21814
 Component Sizing Information, AirTerminal:SingleDuct:VAV:NoReheat, PERI1_MID_DOAS_AIRTERMINAL, User-Specified Constant Minimum Air Flow Fraction, 1.00000
 Component Sizing Information, AirTerminal:SingleDuct:VAV:NoReheat, PERI1_MID_DOAS_AIRTERMINAL, Design Size Minimum Air Flow Rate [m3/s], 0.72426
 Component Sizing Information, ZoneHVAC:LowTemperatureRadiant:ConstantFlow, PERI1_MID_LOTEMP, Design Size Maximum Water Flow [m3/s], 3.43297E-004
 Component Sizing Information, ZoneHVAC:LowTemperatureRadiant:ConstantFlow, PERI1_MID_LOTEMP, Design Size Hydronic Tubing Length [m], 1360.48649
 Component Sizing Information, AirTerminal:SingleDuct:VAV:NoReheat, PERI4_MID_DOAS_AIRTERMINAL, Design Size Maximum Air Flow Rate [m3/s], 0.76334
 Component Sizing Information, AirTerminal:SingleDuct:VAV:NoReheat, PERI4_MID_DOAS_AIRTERMINAL, Design Size Constant Minimum Air Flow Fraction, 0.13102
 Component Sizing Information, AirTerminal:SingleDuct:VAV:NoReheat, PERI4_MID_DOAS_AIRTERMINAL, User-Specified Constant Minimum Air Flow Fraction, 1.00000
 Component Sizing Information, AirTerminal:SingleDuct:VAV:NoReheat, PERI4_MID_DOAS_AIRTERMINAL, Design Size Minimum Air Flow Rate [m3/s], 0.76334
 Component Sizing Information, ZoneHVAC:LowTemperatureRadiant:ConstantFlow, PERI4_MID_LOTEMP, Design Size Maximum Water Flow [m3/s], 3.61821E-004
 Component Sizing Information, ZoneHVAC:LowTemperatureRadiant:ConstantFlow, PERI4_MID_LOTEMP, Design Size Hydronic Tubing Length [m], 861.24399
 Component Sizing Information, AirLoopHVAC, DOAS, Sum of Air Terminal Maximum Heating Flow Rates [m3/s], 17.24006
 Component Sizing Information, AirLoopHVAC, DOAS, Sum of Air Terminal Minimum Heating Flow Rates [m3/s], 17.24006
 Component Sizing Information, AirLoopHVAC, DOAS, Sum of Air Terminal Maximum Flow Rates [m3/s], 17.24006
 Component Sizing Information, AirLoopHVAC, DOAS, Adjusted Heating Design Air Flow Rate [m3/s], 17.24006
 Component Sizing Information, AirLoopHVAC, DOAS, Adjusted Cooling Design Air Flow Rate [m3/s], 17.24006
 Component Sizing Information, AirLoopHVAC, DOAS, Adjusted Main Design Air Flow Rate [m3/s], 17.24006
 Component Sizing Information, AirLoopHVAC, DOAS, User Heating Air Flow Ratio [], 1.00000
 Component Sizing Information, AirLoopHVAC, DOAS, Calculated Heating Air Flow Ratio [], 1.00000
 Component Sizing Information, AirLoopHVAC, DOAS, Design Supply Air Flow Rate [m3/s], 17.24006
 Component Sizing Information, Controller:OutdoorAir, DOAS OA CONTROLLER, Maximum Outdoor Air Flow Rate [m3/s], 17.24006
 Component Sizing Information, Controller:OutdoorAir, DOAS OA CONTROLLER, Minimum Outdoor Air Flow Rate [m3/s], 2.15117
 Component Sizing Information, Coil:Cooling:Water, DOAS COOLING COIL, Design Size Design Inlet Air Temperature [C], 28.54800
 Component Sizing Information, Coil:Cooling:Water, DOAS COOLING COIL, Design Size Design Inlet Water Temperature [C], 7.22000
 Component Sizing Information, Coil:Cooling:Water, DOAS COOLING COIL, Design Size Design Outlet Air Temperature [C], 11.60659
 Component Sizing Information, Coil:Cooling:Water, DOAS COOLING COIL, Design Size Design Inlet Air Humidity Ratio [kgWater/kgDryAir], 1.41133E-002
 Component Sizing Information, Coil:Cooling:Water, DOAS COOLING COIL, Design Size Design Outlet Air Humidity Ratio [kgWater/kgDryAir], 9.24000E-003
 Component Sizing Information, Coil:Cooling:Water, DOAS COOLING COIL, Design Size Design Coil Load [W], 595670.17501
 Component Sizing Information, Coil:Cooling:Water, DOAS COOLING COIL, Design Size Design Water Flow Rate [m3/s], 2.12760E-002
 Component Sizing Information, Coil:Cooling:Water, DOAS COOLING COIL, Design Size Design Air Flow Rate [m3/s], 17.24006
! <Water Cooling Coil Capacity Information>,Component Type,Name,Nominal Total Capacity {W},Nominal Sensible Capacity {W},Nominal Latent Capacity {W},Nominal Sensible Heat Ratio, Nominal Coil UA Value {W/C}, Nominal Coil Surface Area {m2}
Water Cooling Coil Capacity Information,Coil:Cooling:Water,DOAS COOLING COIL,509186.62,322162.38,187024.25,0.63,55827.53,566.23
 Component Sizing Information, Coil:Heating:Water, DOAS HEATING COIL, Design Size Rated Capacity [W], 460577.40176
 Component Sizing Information, Coil:Heating:Water, DOAS HEATING COIL, Design Size Maximum Water Flow Rate [m3/s], 1.01759E-002
 Component Sizing Information, Coil:Heating:Water, DOAS HEATING COIL, Design Size U-Factor Times Area Value [W/K], 6272.28021
! <Water Heating Coil Capacity Information>,Component Type,Name,Nominal Total Capacity {W}
Water Heating Coil Capacity Information,Coil:Heating:Water,DOAS HEATING COIL,326699.30
 Component Sizing Information, Fan:VariableVolume, DOAS SUPPLY FAN, Design Size Maximum Flow Rate [m3/s], 17.24006
 Component Sizing Information, Controller:WaterCoil, DOAS COOLING COIL CONTROLLER, Maximum Actuated Flow [m3/s], 2.12760E-002
 Component Sizing Information, Controller:WaterCoil, DOAS COOLING COIL CONTROLLER, Controller Convergence Tolerance, 2.23816E-005
 Component Sizing Information, Controller:WaterCoil, DOAS HEATING COIL CONTROLLER, Maximum Actuated Flow [m3/s], 1.01759E-002
 Component Sizing Information, Controller:WaterCoil, DOAS HEATING COIL CONTROLLER, Controller Convergence Tolerance, 4.67959E-005
 Component Sizing Information, PlantLoop, CHILLED WATER LOOP CHILLED WATER LOOP, Maximum Loop Flow Rate [m3/s], 2.90136E-002
 Component Sizing Information, PlantLoop, CHILLED WATER LOOP CHILLED WATER LOOP, Plant Loop Volume [m3], 3.48164
 Component Sizing Information, Pump:ConstantSpeed, CHILLED WATER LOOP CHW SUPPLY PUMP, Design Flow Rate [m3/s], 2.90136E-002
 Component Sizing Information, Pump:ConstantSpeed, CHILLED WATER LOOP CHW SUPPLY PUMP, Design Power Consumption [W], 7412.61103
 Component Sizing Information, DistrictCooling, PURCHASEDCOOLING, Design Size Nominal Capacity [W], 812304.43764
 Component Sizing Information, PlantLoop, HOT WATER LOOP HOT WATER LOOP, Maximum Loop Flow Rate [m3/s], 1.80878E-002
 Component Sizing Information, PlantLoop, HOT WATER LOOP HOT WATER LOOP, Plant Loop Volume [m3], 2.17054
 Component Sizing Information, Pump:ConstantSpeed, HOT WATER LOOP HW SUPPLY PUMP, Design Flow Rate [m3/s], 1.80878E-002
 Component Sizing Information, Pump:ConstantSpeed, HOT WATER LOOP HW SUPPLY PUMP, Design Power Consumption [W], 4621.21063
 Component Sizing Information, DistrictHeating, PURCHASED HEATING, Design Size Nominal Capacity [W], 835161.04533
 Component Sizing Information, PlantLoop, CHILLED WATER LOOP CHILLED WATER LOOP2, Maximum Loop Flow Rate [m3/s], 3.89514E-004
 Component Sizing Information, PlantLoop, CHILLED WATER LOOP CHILLED WATER LOOP2, Plant Loop Volume [m3], 4.67417E-002
 Component Sizing Information, Pump:ConstantSpeed, CHILLED WATER LOOP CHW SUPPLY PUMP2, Design Flow Rate [m3/s], 3.89514E-004
 Component Sizing Information, Pump:ConstantSpeed, CHILLED WATER LOOP CHW SUPPLY PUMP2, Design Power Consumption [W], 99.51584
 Component Sizing Information, DistrictCooling, PURCHASEDCOOLING2, Design Size Nominal Capacity [W], 9809.91547
 Component Sizing Information, PlantLoop, HOT WATER LOOP HOT WATER LOOP2, Maximum Loop Flow Rate [m3/s], 2.15245E-004
 Component Sizing Information, PlantLoop, HOT WATER LOOP HOT WATER LOOP2, Plant Loop Volume [m3], 2.58294E-002
 Component Sizing Information, Pump:ConstantSpeed, HOT WATER LOOP HW SUPPLY PUMP2, Design Flow Rate [m3/s], 2.15245E-004
 Component Sizing Information, Pump:ConstantSpeed, HOT WATER LOOP HW SUPPLY PUMP2, Design Power Consumption [W], 54.99234
 Component Sizing Information, DistrictHeating, PURCHASED HEATING2, Design Size Nominal Capacity [W], 9938.40405
! <Environment>,Environment Name,Environment Type, Start Date, End Date, Start DayOfWeek, Duration {#days}, Source:Start DayOfWeek,  Use Daylight Saving, Use Holidays, Apply Weekend Holiday Rule,  Use Rain Values, Use Snow Values, Sky Temperature Model
! <Environment:Special Days>, Special Day Name, Special Day Type, Source, Start Date, Duration {#days}
! <Environment:Daylight Saving>, Daylight Saving Indicator, Source, Start Date, End Date
! <Environment:WarmupDays>, NumberofWarmupDays
Environment,RUNPERIOD 1,WeatherFileRunPeriod,01/21/2013,01/22/2013,Monday,2,Use RunPeriod Specified Day,No,No,No,Yes,Yes,Clark and Allen
Environment:Daylight Saving,Yes,InputFile,03/10,11/03
Environment:Special Days,NEW YEARS DAY,Holiday,InputFile,01/01,  1Environment:Special Days,VETERANS DAY,Holiday,InputFile,11/11,  1Environment:Special Days,CHRISTMAS,Holiday,InputFile,12/25,  1Environment:Special Days,INDEPENDENCE DAY,Holiday,InputFile,07/04,  1Environment:Special Days,MLK DAY,Holiday,InputFile,01/21,  1Environment:Special Days,PRESIDENTS DAY,Holiday,InputFile,02/18,  1Environment:Special Days,MEMORIAL DAY,Holiday,InputFile,05/27,  1Environment:Special Days,LABOR DAY,Holiday,InputFile,09/02,  1Environment:Special Days,COLUMBUS DAY,Holiday,InputFile,10/14,  1Environment:Special Days,THANKSGIVING,Holiday,InputFile,11/28,  1Environment:WarmupDays,  6
! <Warmup Convergence Information>,Zone Name,Environment Type/Name,Average Warmup Temperature Difference {deltaC},Std Dev Warmup Temperature Difference {deltaC},Max Temperature Pass/Fail Convergence,Min Temperature Pass/Fail Convergence,Average Warmup Load Difference {W},Std Dev Warmup Load Difference {W},Heating Load Pass/Fail Convergence,Cooling Load Pass/Fail Convergence
 Warmup Convergence Information,CORE_BOTTOM,RunPeriod: RUNPERIOD 1,2.0858640100E-003,1.9844236655E-003,Pass,Pass,0.0000000000,0.0000000000,Pass,Pass
 Warmup Convergence Information,TOPFLOOR_PLENUM,RunPeriod: RUNPERIOD 1,1.4626942248E-002,1.2014096763E-002,Pass,Pass,0.0000000000,0.0000000000,Pass,Pass
 Warmup Convergence Information,MIDFLOOR_PLENUM,RunPeriod: RUNPERIOD 1,3.4448901272E-003,2.5938760782E-003,Pass,Pass,0.0000000000,0.0000000000,Pass,Pass
 Warmup Convergence Information,FIRSTFLOOR_PLENUM,RunPeriod: RUNPERIOD 1,3.1007750688E-003,2.6495624149E-003,Pass,Pass,0.0000000000,0.0000000000,Pass,Pass
 Warmup Convergence Information,CORE_MID,RunPeriod: RUNPERIOD 1,1.9235000919E-003,2.0424685204E-003,Pass,Pass,0.0000000000,0.0000000000,Pass,Pass
 Warmup Convergence Information,CORE_TOP,RunPeriod: RUNPERIOD 1,4.6282425396E-003,3.4146767336E-003,Pass,Pass,0.0000000000,0.0000000000,Pass,Pass
 Warmup Convergence Information,PERIMETER_TOP_ZN_3,RunPeriod: RUNPERIOD 1,1.3774739353E-002,1.0790571081E-002,Pass,Pass,0.0000000000,0.0000000000,Pass,Pass
 Warmup Convergence Information,PERIMETER_TOP_ZN_2,RunPeriod: RUNPERIOD 1,1.7062886197E-002,1.3529236308E-002,Pass,Pass,0.0000000000,0.0000000000,Pass,Pass
 Warmup Convergence Information,PERIMETER_TOP_ZN_1,RunPeriod: RUNPERIOD 1,2.1160076415E-002,1.7251122567E-002,Pass,Pass,0.0000000000,0.0000000000,Pass,Pass
 Warmup Convergence Information,PERIMETER_TOP_ZN_4,RunPeriod: RUNPERIOD 1,2.3795917571E-002,2.4935939772E-002,Pass,Pass,0.0000000000,0.0000000000,Pass,Pass
 Warmup Convergence Information,PERIMETER_BOT_ZN_3,RunPeriod: RUNPERIOD 1,9.1489984690E-003,6.0553669248E-003,Pass,Pass,0.0000000000,0.0000000000,Pass,Pass
 Warmup Convergence Information,PERIMETER_BOT_ZN_2,RunPeriod: RUNPERIOD 1,1.1551038925E-002,1.0214004283E-002,Pass,Pass,0.0000000000,0.0000000000,Pass,Pass
 Warmup Convergence Information,PERIMETER_BOT_ZN_1,RunPeriod: RUNPERIOD 1,1.8175860146E-002,1.7835594854E-002,Pass,Pass,0.0000000000,0.0000000000,Pass,Pass
 Warmup Convergence Information,PERIMETER_BOT_ZN_4,RunPeriod: RUNPERIOD 1,1.9181249776E-002,2.4965527170E-002,Pass,Pass,0.0000000000,0.0000000000,Pass,Pass
 Warmup Convergence Information,PERIMETER_MID_ZN_3,RunPeriod: RUNPERIOD 1,9.4606459108E-003,7.1337736545E-003,Pass,Pass,0.0000000000,0.0000000000,Pass,Pass
 Warmup Convergence Information,PERIMETER_MID_ZN_2,RunPeriod: RUNPERIOD 1,1.1999280053E-002,1.0141442414E-002,Pass,Pass,0.0000000000,0.0000000000,Pass,Pass
 Warmup Convergence Information,PERIMETER_MID_ZN_1,RunPeriod: RUNPERIOD 1,1.7712392293E-002,1.7044643641E-002,Pass,Pass,0.0000000000,0.0000000000,Pass,Pass
 Warmup Convergence Information,PERIMETER_MID_ZN_4,RunPeriod: RUNPERIOD 1,1.9068072744E-002,2.4998498768E-002,Pass,Pass,0.0000000000,0.0000000000,Pass,Pass
! <ConductionFiniteDifference Numerical Parameters>, Starting Relaxation Factor, Final Relaxation Factor
ConductionFiniteDifference Numerical Parameters, 1.000, 1.000
! <Program Control Information:Threads/Parallel Sims>, Threading Supported,Maximum Number of Threads, Env Set Threads (OMP_NUM_THREADS), EP Env Set Threads (EP_OMP_NUM_THREADS), IDF Set Threads, Number of Threads Used (Interior Radiant Exchange), Number Nominal Surfaces, Number Parallel Sims
Program Control:Threads/Parallel Sims, No,1, N/A, N/A, N/A, N/A, N/A, N/A
End of Data
