Program Version,EnergyPlus, Version 9.5.0-de239b2e5f, YMD=2021.07.22 14:23
! <Version>, Version ID
 Version, 9.5
! <Timesteps per Hour>, #TimeSteps, Minutes per TimeStep {minutes}
 Timesteps per Hour, 60,  1
! <System Convergence Limits>, Minimum System TimeStep {minutes}, Max HVAC Iterations, Minimum Plant Iterations, Maximum Plant Iterations
 System Convergence Limits, 1, 20, 2, 8
! <Simulation Control>, Do Zone Sizing, Do System Sizing, Do Plant Sizing, Do Design Days, Do Weather Simulation, Do HVAC Sizing Simulation
 Simulation Control, Yes, Yes, Yes, Yes, Yes, No
! <Performance Precision Tradeoffs>, Use Coil Direct Simulation, Zone Radiant Exchange Algorithm, Override Mode, Number of Timestep In Hour, Force Euler Method, Minimum Number of Warmup Days, Force Suppress All Begin Environment Resets, Minimum System Timestep, MaxZoneTempDiff, MaxAllowedDelTemp
 Performance Precision Tradeoffs, No, ScriptF, Normal, 60, No, 1, No, 1.0, 0.300, 2.0000E-003
! <Output Reporting Tolerances>, Tolerance for Time Heating Setpoint Not Met, Tolerance for Zone Cooling Setpoint Not Met Time
 Output Reporting Tolerances, 0.200, 0.200, 
! <Site:GroundTemperature:BuildingSurface>,Jan{C},Feb{C},Mar{C},Apr{C},May{C},Jun{C},Jul{C},Aug{C},Sep{C},Oct{C},Nov{C},Dec{C}
 Site:GroundTemperature:BuildingSurface,  20.52,  20.52,  20.65,  20.74,  20.84,  23.05,  23.45,  23.54,  23.52,  21.25,  20.85,  20.67
! <Site:GroundTemperature:FCfactorMethod>,Jan{C},Feb{C},Mar{C},Apr{C},May{C},Jun{C},Jul{C},Aug{C},Sep{C},Oct{C},Nov{C},Dec{C}
 Site:GroundTemperature:FCfactorMethod,  10.83,   7.34,   6.39,   7.21,  11.92,  17.20,  22.17,  25.77,  26.82,  25.13,  21.06,  15.93
! <Site:GroundTemperature:Shallow>,Jan{C},Feb{C},Mar{C},Apr{C},May{C},Jun{C},Jul{C},Aug{C},Sep{C},Oct{C},Nov{C},Dec{C}
 Site:GroundTemperature:Shallow,  13.00,  13.00,  13.00,  13.00,  13.00,  13.00,  13.00,  13.00,  13.00,  13.00,  13.00,  13.00
! <Site:GroundTemperature:Deep>,Jan{C},Feb{C},Mar{C},Apr{C},May{C},Jun{C},Jul{C},Aug{C},Sep{C},Oct{C},Nov{C},Dec{C}
 Site:GroundTemperature:Deep,  16.00,  16.00,  16.00,  16.00,  16.00,  16.00,  16.00,  16.00,  16.00,  16.00,  16.00,  16.00
! <Site:GroundReflectance>,Jan{dimensionless},Feb{dimensionless},Mar{dimensionless},Apr{dimensionless},May{dimensionless},Jun{dimensionless},Jul{dimensionless},Aug{dimensionless},Sep{dimensionless},Oct{dimensionless},Nov{dimensionless},Dec{dimensionless}
 Site:GroundReflectance,  0.20,  0.20,  0.20,  0.20,  0.20,  0.20,  0.20,  0.20,  0.20,  0.20,  0.20,  0.20
! <Site:GroundReflectance:SnowModifier>, Normal, Daylighting {dimensionless}
 Site:GroundReflectance:SnowModifier,   1.000,   1.000
! <Site:GroundReflectance:Snow>,Jan{dimensionless},Feb{dimensionless},Mar{dimensionless},Apr{dimensionless},May{dimensionless},Jun{dimensionless},Jul{dimensionless},Aug{dimensionless},Sep{dimensionless},Oct{dimensionless},Nov{dimensionless},Dec{dimensionless}
 Site:GroundReflectance:Snow,  0.20,  0.20,  0.20,  0.20,  0.20,  0.20,  0.20,  0.20,  0.20,  0.20,  0.20,  0.20
! <Site:GroundReflectance:Snow:Daylighting>,Jan{dimensionless},Feb{dimensionless},Mar{dimensionless},Apr{dimensionless},May{dimensionless},Jun{dimensionless},Jul{dimensionless},Aug{dimensionless},Sep{dimensionless},Oct{dimensionless},Nov{dimensionless},Dec{dimensionless}
 Site:GroundReflectance:Snow:Daylighting,  0.20,  0.20,  0.20,  0.20,  0.20,  0.20,  0.20,  0.20,  0.20,  0.20,  0.20,  0.20
! <Environment:Weather Station>,Wind Sensor Height Above Ground {m},Wind Speed Profile Exponent {},Wind Speed Profile Boundary Layer Thickness {m},Air Temperature Sensor Height Above Ground {m},Wind Speed Modifier Coefficient-Internal,Temperature Modifier Coefficient-Internal
Environment:Weather Station,10.000,0.140,270.000,1.500,1.586,9.750E-003
! <Site:Location>, Location Name, Latitude {N+/S- Deg}, Longitude {E+/W- Deg},  Time Zone Number {GMT+/-}, Elevation {m},  Standard Pressure at Elevation {Pa}, Standard RhoAir at Elevation
Site:Location,Atlanta Hartsfield Intl Ap GA USA TMY3 WMO#=722190,33.63,-84.43,-5.00,308.00,97679,1.1610
! <Site Water Mains Temperature Information>,Calculation Method{},Water Mains Temperature Schedule Name{},Annual Average Outdoor Air Temperature{C},Maximum Difference In Monthly Average Outdoor Air Temperatures{deltaC},Fixed Default Water Mains Temperature{C}
Site Water Mains Temperature Information,Correlation,NA,16.60,22.50,NA
! <Building Information>, Building Name,North Axis {deg},Terrain,  Loads Convergence Tolerance Value,Temperature Convergence Tolerance Value,  Solar Distribution,Maximum Number of Warmup Days,Minimum Number of Warmup Days
 Building Information,Medium Office,0.000,City,4.00000E-002,0.20000,FullInteriorAndExterior,40,6
! <Inside Convection Algorithm>, Algorithm {Simple | TARP | CeilingDiffuser | AdaptiveConvectionAlgorithm}
Inside Convection Algorithm,TARP
! <Outside Convection Algorithm>, Algorithm {SimpleCombined | TARP | MoWitt | DOE-2 | AdaptiveConvectionAlgorithm}
Outside Convection Algorithm,TARP
! <Sky Radiance Distribution>, Value {Anisotropic}
Sky Radiance Distribution,Anisotropic
! <Zone Air Solution Algorithm>, Value {ThirdOrderBackwardDifference | AnalyticalSolution | EulerMethod}
 Zone Air Solution Algorithm, ThirdOrderBackwardDifference
! <Zone Air Carbon Dioxide Balance Simulation>, Simulation {Yes/No}, Carbon Dioxide Concentration
 Zone Air Carbon Dioxide Balance Simulation, No,N/A
! <Zone Air Generic Contaminant Balance Simulation>, Simulation {Yes/No}, Generic Contaminant Concentration
 Zone Air Generic Contaminant Balance Simulation, No,N/A
! <Zone Air Mass Flow Balance Simulation>, Enforce Mass Balance, Adjust Zone Mixing and Return {AdjustMixingOnly | AdjustReturnOnly | AdjustMixingThenReturn | AdjustReturnThenMixing | None}, Adjust Zone Infiltration {AddInfiltration | AdjustInfiltration | None}, Infiltration Zones {MixingSourceZonesOnly | AllZones}
 Zone Air Mass Flow Balance Simulation, No,N/A,N/A,N/A
! <HVACSystemRootFindingAlgorithm>, Value {RegulaFalsi | Bisection | BisectionThenRegulaFalsi | RegulaFalsiThenBisection}
 HVACSystemRootFindingAlgorithm, RegulaFalsi
! <Environment:Site Atmospheric Variation>,Wind Speed Profile Exponent {},Wind Speed Profile Boundary Layer Thickness {m},Air Temperature Gradient Coefficient {K/m}
Environment:Site Atmospheric Variation,0.330,460.000,6.500000E-003
! <Surface Geometry>,Starting Corner,Vertex Input Direction,Coordinate System,Daylight Reference Point Coordinate System,Rectangular (Simple) Surface Coordinate System
 Surface Geometry,UpperLeftCorner,Counterclockwise,RelativeCoordinateSystem,RelativeCoordinateSystem,RelativeToZoneOrigin
! <Surface Heat Transfer Algorithm>, Value {CTF - ConductionTransferFunction | EMPD - MoisturePenetrationDepthConductionTransferFunction | CondFD - ConductionFiniteDifference | HAMT - CombinedHeatAndMoistureFiniteElement} - Description,Inside Surface Max Temperature Limit{C}, Surface Convection Coefficient Lower Limit {W/m2-K}, Surface Convection Coefficient Upper Limit {W/m2-K}
Surface Heat Transfer Algorithm, CTF - ConductionTransferFunction,200,0.10,1000.0
Surface Heat Transfer Algorithm, CondFD - ConductionFiniteDifference,200,0.10,1000.0
! <Shading Summary>, Number of Fixed Detached Shades, Number of Building Detached Shades, Number of Attached Shades
 Shading Summary,0,0,0
! <Zone Summary>, Number of Zones, Number of Zone Surfaces, Number of SubSurfaces
 Zone Summary,18,167,24
! <Zone Information>,Zone Name,North Axis {deg},Origin X-Coordinate {m},Origin Y-Coordinate {m},Origin Z-Coordinate {m},Centroid X-Coordinate {m},Centroid Y-Coordinate {m},Centroid Z-Coordinate {m},Type,Zone Multiplier,Zone List Multiplier,Minimum X {m},Maximum X {m},Minimum Y {m},Maximum Y {m},Minimum Z {m},Maximum Z {m},Ceiling Height {m},Volume {m3},Zone Inside Convection Algorithm {Simple-Detailed-CeilingDiffuser-TrombeWall},Zone Outside Convection Algorithm {Simple-Detailed-Tarp-MoWitt-DOE-2-BLAST}, Floor Area {m2},Exterior Gross Wall Area {m2},Exterior Net Wall Area {m2},Exterior Window Area {m2}, Number of Surfaces, Number of SubSurfaces, Number of Shading SubSurfaces,  Part of Total Building Area
 Zone Information, CORE_BOTTOM,0.0,0.00,0.00,0.00,24.96,16.64,1.37,1,1,1,4.57,45.34,4.57,28.70,0.00,2.74,2.74,2698.04,TARP,TARP,983.54,0.00,0.00,0.00,6,0,0,Yes
 Zone Information, TOPFLOOR_PLENUM,0.0,0.00,0.00,0.00,24.96,16.64,11.28,1,1,1,0.00,49.91,0.00,33.27,10.67,11.89,1.22,2024.76,TARP,TARP,1660.73,202.84,202.84,0.00,10,0,0,No
 Zone Information, MIDFLOOR_PLENUM,0.0,0.00,0.00,0.00,24.96,16.64,7.32,1,1,1,0.00,49.91,0.00,33.27,6.71,7.92,1.22,2024.76,TARP,TARP,1660.73,202.84,202.84,0.00,14,0,0,No
 Zone Information, FIRSTFLOOR_PLENUM,0.0,0.00,0.00,0.00,24.96,16.64,3.35,1,1,1,0.00,49.91,0.00,33.27,2.74,3.96,1.22,2024.76,TARP,TARP,1660.73,202.84,202.84,0.00,14,0,0,No
 Zone Information, CORE_MID,0.0,0.00,0.00,0.00,24.96,16.64,5.33,1,1,1,4.57,45.34,4.57,28.70,3.96,6.71,2.74,2698.04,TARP,TARP,983.54,0.00,0.00,0.00,6,0,0,Yes
 Zone Information, CORE_TOP,0.0,0.00,0.00,0.00,24.96,16.64,9.30,1,1,1,4.57,45.34,4.57,28.70,7.92,10.67,2.74,2698.04,TARP,TARP,983.54,0.00,0.00,0.00,6,0,0,Yes
 Zone Information, PERIMETER_TOP_ZN_3,0.0,0.00,0.00,0.00,24.96,31.11,9.30,1,1,1,0.00,49.91,28.70,33.27,7.92,10.67,2.74,568.77,TARP,TARP,207.34,136.92,71.65,65.26,6,1,0,Yes
 Zone Information, PERIMETER_TOP_ZN_2,0.0,0.00,0.00,0.00,47.82,16.64,9.30,1,1,1,45.34,49.91,0.00,33.27,7.92,10.67,2.74,360.08,TARP,TARP,131.26,91.28,47.77,43.51,6,1,0,Yes
 Zone Information, PERIMETER_TOP_ZN_1,0.0,0.00,0.00,0.00,24.96,2.16,9.30,1,1,1,0.00,49.91,0.00,4.57,7.92,10.67,2.74,568.77,TARP,TARP,207.34,136.92,71.65,65.26,6,1,0,Yes
 Zone Information, PERIMETER_TOP_ZN_4,0.0,0.00,0.00,0.00,2.09,16.64,9.30,1,1,1,0.00,4.57,0.00,33.27,7.92,10.67,2.74,360.05,TARP,TARP,131.25,91.28,47.77,43.51,6,1,0,Yes
 Zone Information, PERIMETER_BOT_ZN_3,0.0,0.00,0.00,0.00,24.96,31.11,1.37,1,1,1,0.00,49.91,28.70,33.27,0.00,2.74,2.74,568.77,TARP,TARP,207.34,136.92,67.76,65.26,6,5,0,Yes
 Zone Information, PERIMETER_BOT_ZN_2,0.0,0.00,0.00,0.00,47.82,16.64,1.37,1,1,1,45.34,49.91,0.00,33.27,0.00,2.74,2.74,360.08,TARP,TARP,131.26,91.28,45.82,43.51,6,3,0,Yes
 Zone Information, PERIMETER_BOT_ZN_1,0.0,0.00,0.00,0.00,24.96,2.16,1.37,1,1,1,0.00,49.91,0.00,4.57,0.00,2.74,2.74,568.77,TARP,TARP,207.34,136.92,67.76,65.26,6,5,0,Yes
 Zone Information, PERIMETER_BOT_ZN_4,0.0,0.00,0.00,0.00,2.09,16.64,1.37,1,1,1,0.00,4.57,0.00,33.27,0.00,2.74,2.74,360.05,TARP,TARP,131.25,91.28,45.82,43.51,6,3,0,Yes
 Zone Information, PERIMETER_MID_ZN_3,0.0,0.00,0.00,0.00,24.96,31.11,5.33,1,1,1,0.00,49.91,28.70,33.27,3.96,6.71,2.74,568.77,TARP,TARP,207.34,136.92,71.65,65.26,6,1,0,Yes
 Zone Information, PERIMETER_MID_ZN_2,0.0,0.00,0.00,0.00,47.82,16.64,5.33,1,1,1,45.34,49.91,0.00,33.27,3.96,6.71,2.74,360.08,TARP,TARP,131.26,91.28,47.77,43.51,6,1,0,Yes
 Zone Information, PERIMETER_MID_ZN_1,0.0,0.00,0.00,0.00,24.96,2.16,5.33,1,1,1,0.00,49.91,0.00,4.57,3.96,6.71,2.74,568.77,TARP,TARP,207.34,136.92,71.65,65.26,6,1,0,Yes
 Zone Information, PERIMETER_MID_ZN_4,0.0,0.00,0.00,0.00,2.09,16.64,5.33,1,1,1,0.00,4.57,0.00,33.27,3.96,6.71,2.74,360.05,TARP,TARP,131.25,91.28,47.77,43.51,6,1,0,Yes
! <Zone Internal Gains Nominal>,Zone Name, Floor Area {m2},# Occupants,Area per Occupant {m2/person},Occupant per Area {person/m2},Interior Lighting {W/m2},Electric Load {W/m2},Gas Load {W/m2},Other Load {W/m2},Hot Water Eq {W/m2},Steam Equipment {W/m2},Sum Loads per Area {W/m2},Outdoor Controlled Baseboard Heat
 Zone Internal Gains Nominal, CORE_BOTTOM,983.54,52.9,18.579,5.382E-002,8.503,40.844,0.000,0.000,0.000,0.000,49.348,No
 Zone Internal Gains Nominal, TOPFLOOR_PLENUM,1660.73,0.0,N/A,0.000,0.000,0.000,0.000,0.000,0.000,0.000,0.000,No
 Zone Internal Gains Nominal, MIDFLOOR_PLENUM,1660.73,0.0,N/A,0.000,0.000,0.000,0.000,0.000,0.000,0.000,0.000,No
 Zone Internal Gains Nominal, FIRSTFLOOR_PLENUM,1660.73,0.0,N/A,0.000,0.000,0.000,0.000,0.000,0.000,0.000,0.000,No
 Zone Internal Gains Nominal, CORE_MID,983.54,52.9,18.579,5.382E-002,8.503,8.070,0.000,0.000,0.000,0.000,16.574,No
 Zone Internal Gains Nominal, CORE_TOP,983.54,52.9,18.579,5.382E-002,8.503,8.070,0.000,0.000,0.000,0.000,16.574,No
 Zone Internal Gains Nominal, PERIMETER_TOP_ZN_3,207.34,11.2,18.579,5.382E-002,8.503,8.070,0.000,0.000,0.000,0.000,16.573,No
 Zone Internal Gains Nominal, PERIMETER_TOP_ZN_2,131.26,7.1,18.579,5.382E-002,8.503,8.069,0.000,0.000,0.000,0.000,16.573,No
 Zone Internal Gains Nominal, PERIMETER_TOP_ZN_1,207.34,11.2,18.579,5.382E-002,8.503,8.070,0.000,0.000,0.000,0.000,16.573,No
 Zone Internal Gains Nominal, PERIMETER_TOP_ZN_4,131.25,7.1,18.579,5.382E-002,8.503,8.070,0.000,0.000,0.000,0.000,16.573,No
 Zone Internal Gains Nominal, PERIMETER_BOT_ZN_3,207.34,11.2,18.579,5.382E-002,8.503,8.070,0.000,0.000,0.000,0.000,16.573,No
 Zone Internal Gains Nominal, PERIMETER_BOT_ZN_2,131.26,7.1,18.579,5.382E-002,8.503,8.069,0.000,0.000,0.000,0.000,16.573,No
 Zone Internal Gains Nominal, PERIMETER_BOT_ZN_1,207.34,11.2,18.579,5.382E-002,8.503,8.070,0.000,0.000,0.000,0.000,16.573,No
 Zone Internal Gains Nominal, PERIMETER_BOT_ZN_4,131.25,7.1,18.579,5.382E-002,8.503,8.070,0.000,0.000,0.000,0.000,16.573,No
 Zone Internal Gains Nominal, PERIMETER_MID_ZN_3,207.34,11.2,18.579,5.382E-002,8.503,8.070,0.000,0.000,0.000,0.000,16.573,No
 Zone Internal Gains Nominal, PERIMETER_MID_ZN_2,131.26,7.1,18.579,5.382E-002,8.503,8.069,0.000,0.000,0.000,0.000,16.573,No
 Zone Internal Gains Nominal, PERIMETER_MID_ZN_1,207.34,11.2,18.579,5.382E-002,8.503,8.070,0.000,0.000,0.000,0.000,16.573,No
 Zone Internal Gains Nominal, PERIMETER_MID_ZN_4,131.25,7.1,18.579,5.382E-002,8.503,8.070,0.000,0.000,0.000,0.000,16.573,No
! <People Internal Gains Nominal>,Name,Schedule Name,Zone Name,Zone Floor Area {m2},# Zone Occupants,Number of People {},People/Floor Area {person/m2},Floor Area per person {m2/person},Fraction Radiant,Fraction Convected,Sensible Fraction Calculation,Activity level,ASHRAE 55 Warnings,Carbon Dioxide Generation Rate,Nominal Minimum Number of People,Nominal Maximum Number of People,MRT Calculation Type,Work Efficiency, Clothing Insulation Calculation Method,Clothing Insulation Calculation Method Schedule,Clothing,Air Velocity,Fanger Calculation,Pierce Calculation,KSU Calculation,Cooling Effect Calculation,Ankle Draft Calculation
 People Internal Gains Nominal, CORE_BOTTOM,BLDG_OCC_SCH,CORE_BOTTOM,983.54,52.9,52.9,5.382E-002,18.579,0.300,0.700,AutoCalculate,ACTIVITY_SCH,No,3.8200E-008,0,53,Zone Averaged,WORK_EFF_SCH,Clothing Insulation Schedule,N/A,CLOTHING_SCH,AIR_VELO_SCH,Yes,No,No,No,No
 People Internal Gains Nominal, CORE_MID,BLDG_OCC_SCH,CORE_MID,983.54,52.9,52.9,5.382E-002,18.579,0.300,0.700,AutoCalculate,ACTIVITY_SCH,No,3.8200E-008,0,53,Zone Averaged,WORK_EFF_SCH,Clothing Insulation Schedule,N/A,CLOTHING_SCH,AIR_VELO_SCH,Yes,No,No,No,No
 People Internal Gains Nominal, CORE_TOP,BLDG_OCC_SCH,CORE_TOP,983.54,52.9,52.9,5.382E-002,18.579,0.300,0.700,AutoCalculate,ACTIVITY_SCH,No,3.8200E-008,0,53,Zone Averaged,WORK_EFF_SCH,Clothing Insulation Schedule,N/A,CLOTHING_SCH,AIR_VELO_SCH,Yes,No,No,No,No
 People Internal Gains Nominal, PERIMETER_TOP_ZN_3,BLDG_OCC_SCH,PERIMETER_TOP_ZN_3,207.34,11.2,11.2,5.382E-002,18.579,0.300,0.700,AutoCalculate,ACTIVITY_SCH,No,3.8200E-008,0,11,Zone Averaged,WORK_EFF_SCH,Clothing Insulation Schedule,N/A,CLOTHING_SCH,AIR_VELO_SCH,Yes,No,No,No,No
 People Internal Gains Nominal, PERIMETER_TOP_ZN_2,BLDG_OCC_SCH,PERIMETER_TOP_ZN_2,131.26,7.1,7.1,5.382E-002,18.579,0.300,0.700,AutoCalculate,ACTIVITY_SCH,No,3.8200E-008,0,7,Zone Averaged,WORK_EFF_SCH,Clothing Insulation Schedule,N/A,CLOTHING_SCH,AIR_VELO_SCH,Yes,No,No,No,No
 People Internal Gains Nominal, PERIMETER_TOP_ZN_1,BLDG_OCC_SCH,PERIMETER_TOP_ZN_1,207.34,11.2,11.2,5.382E-002,18.579,0.300,0.700,AutoCalculate,ACTIVITY_SCH,No,3.8200E-008,0,11,Zone Averaged,WORK_EFF_SCH,Clothing Insulation Schedule,N/A,CLOTHING_SCH,AIR_VELO_SCH,Yes,No,No,No,No
 People Internal Gains Nominal, PERIMETER_TOP_ZN_4,BLDG_OCC_SCH,PERIMETER_TOP_ZN_4,131.25,7.1,7.1,5.382E-002,18.579,0.300,0.700,AutoCalculate,ACTIVITY_SCH,No,3.8200E-008,0,7,Zone Averaged,WORK_EFF_SCH,Clothing Insulation Schedule,N/A,CLOTHING_SCH,AIR_VELO_SCH,Yes,No,No,No,No
 People Internal Gains Nominal, PERIMETER_BOT_ZN_3,BLDG_OCC_SCH,PERIMETER_BOT_ZN_3,207.34,11.2,11.2,5.382E-002,18.579,0.300,0.700,AutoCalculate,ACTIVITY_SCH,No,3.8200E-008,0,11,Zone Averaged,WORK_EFF_SCH,Clothing Insulation Schedule,N/A,CLOTHING_SCH,AIR_VELO_SCH,Yes,No,No,No,No
 People Internal Gains Nominal, PERIMETER_BOT_ZN_2,BLDG_OCC_SCH,PERIMETER_BOT_ZN_2,131.26,7.1,7.1,5.382E-002,18.579,0.300,0.700,AutoCalculate,ACTIVITY_SCH,No,3.8200E-008,0,7,Zone Averaged,WORK_EFF_SCH,Clothing Insulation Schedule,N/A,CLOTHING_SCH,AIR_VELO_SCH,Yes,No,No,No,No
 People Internal Gains Nominal, PERIMETER_BOT_ZN_1,BLDG_OCC_SCH,PERIMETER_BOT_ZN_1,207.34,11.2,11.2,5.382E-002,18.579,0.300,0.700,AutoCalculate,ACTIVITY_SCH,No,3.8200E-008,0,11,Zone Averaged,WORK_EFF_SCH,Clothing Insulation Schedule,N/A,CLOTHING_SCH,AIR_VELO_SCH,Yes,No,No,No,No
 People Internal Gains Nominal, PERIMETER_BOT_ZN_4,BLDG_OCC_SCH,PERIMETER_BOT_ZN_4,131.25,7.1,7.1,5.382E-002,18.579,0.300,0.700,AutoCalculate,ACTIVITY_SCH,No,3.8200E-008,0,7,Zone Averaged,WORK_EFF_SCH,Clothing Insulation Schedule,N/A,CLOTHING_SCH,AIR_VELO_SCH,Yes,No,No,No,No
 People Internal Gains Nominal, PERIMETER_MID_ZN_3,BLDG_OCC_SCH,PERIMETER_MID_ZN_3,207.34,11.2,11.2,5.382E-002,18.579,0.300,0.700,AutoCalculate,ACTIVITY_SCH,No,3.8200E-008,0,11,Zone Averaged,WORK_EFF_SCH,Clothing Insulation Schedule,N/A,CLOTHING_SCH,AIR_VELO_SCH,Yes,No,No,No,No
 People Internal Gains Nominal, PERIMETER_MID_ZN_2,BLDG_OCC_SCH,PERIMETER_MID_ZN_2,131.26,7.1,7.1,5.382E-002,18.579,0.300,0.700,AutoCalculate,ACTIVITY_SCH,No,3.8200E-008,0,7,Zone Averaged,WORK_EFF_SCH,Clothing Insulation Schedule,N/A,CLOTHING_SCH,AIR_VELO_SCH,Yes,No,No,No,No
 People Internal Gains Nominal, PERIMETER_MID_ZN_1,BLDG_OCC_SCH,PERIMETER_MID_ZN_1,207.34,11.2,11.2,5.382E-002,18.579,0.300,0.700,AutoCalculate,ACTIVITY_SCH,No,3.8200E-008,0,11,Zone Averaged,WORK_EFF_SCH,Clothing Insulation Schedule,N/A,CLOTHING_SCH,AIR_VELO_SCH,Yes,No,No,No,No
 People Internal Gains Nominal, PERIMETER_MID_ZN_4,BLDG_OCC_SCH,PERIMETER_MID_ZN_4,131.25,7.1,7.1,5.382E-002,18.579,0.300,0.700,AutoCalculate,ACTIVITY_SCH,No,3.8200E-008,0,7,Zone Averaged,WORK_EFF_SCH,Clothing Insulation Schedule,N/A,CLOTHING_SCH,AIR_VELO_SCH,Yes,No,No,No,No
! <Lights Internal Gains Nominal>,Name,Schedule Name,Zone Name,Zone Floor Area {m2},# Zone Occupants,Lighting Level {W},Lights/Floor Area {W/m2},Lights per person {W/person},Fraction Return Air,Fraction Radiant,Fraction Short Wave,Fraction Convected,Fraction Replaceable,End-Use Category,Nominal Minimum Lighting Level {W},Nominal Maximum Lighting Level {W}
 Lights Internal Gains Nominal, CORE_BOTTOM_LIGHTS,BLDG_LIGHT_SCH,CORE_BOTTOM,983.54,52.9,8363.493,8.503,157.985,0.000,0.700,0.200,0.100,1.000,General Lights,0.000,8363.493
 Lights Internal Gains Nominal, CORE_MID_LIGHTS,BLDG_LIGHT_SCH,CORE_MID,983.54,52.9,8363.493,8.503,157.985,0.000,0.700,0.200,0.100,1.000,General Lights,0.000,8363.493
 Lights Internal Gains Nominal, CORE_TOP_LIGHTS,BLDG_LIGHT_SCH,CORE_TOP,983.54,52.9,8363.493,8.503,157.985,0.000,0.700,0.200,0.100,1.000,General Lights,0.000,8363.493
 Lights Internal Gains Nominal, PERIMETER_TOP_ZN_3_LIGHTS,BLDG_LIGHT_SCH,PERIMETER_TOP_ZN_3,207.34,11.2,1763.098,8.503,157.985,0.000,0.700,0.200,0.100,1.000,General Lights,0.000,1763.098
 Lights Internal Gains Nominal, PERIMETER_TOP_ZN_2_LIGHTS,BLDG_LIGHT_SCH,PERIMETER_TOP_ZN_2,131.26,7.1,1116.187,8.503,157.985,0.000,0.700,0.200,0.100,1.000,General Lights,0.000,1116.187
 Lights Internal Gains Nominal, PERIMETER_TOP_ZN_1_LIGHTS,BLDG_LIGHT_SCH,PERIMETER_TOP_ZN_1,207.34,11.2,1763.098,8.503,157.985,0.000,0.700,0.200,0.100,1.000,General Lights,0.000,1763.098
 Lights Internal Gains Nominal, PERIMETER_TOP_ZN_4_LIGHTS,BLDG_LIGHT_SCH,PERIMETER_TOP_ZN_4,131.25,7.1,1116.113,8.503,157.985,0.000,0.700,0.200,0.100,1.000,General Lights,0.000,1116.113
 Lights Internal Gains Nominal, PERIMETER_BOT_ZN_3_LIGHTS,BLDG_LIGHT_SCH,PERIMETER_BOT_ZN_3,207.34,11.2,1763.098,8.503,157.985,0.000,0.700,0.200,0.100,1.000,General Lights,0.000,1763.098
 Lights Internal Gains Nominal, PERIMETER_BOT_ZN_2_LIGHTS,BLDG_LIGHT_SCH,PERIMETER_BOT_ZN_2,131.26,7.1,1116.187,8.503,157.985,0.000,0.700,0.200,0.100,1.000,General Lights,0.000,1116.187
 Lights Internal Gains Nominal, PERIMETER_BOT_ZN_1_LIGHTS,BLDG_LIGHT_SCH,PERIMETER_BOT_ZN_1,207.34,11.2,1763.098,8.503,157.985,0.000,0.700,0.200,0.100,1.000,General Lights,0.000,1763.098
 Lights Internal Gains Nominal, PERIMETER_BOT_ZN_4_LIGHTS,BLDG_LIGHT_SCH,PERIMETER_BOT_ZN_4,131.25,7.1,1116.113,8.503,157.985,0.000,0.700,0.200,0.100,1.000,General Lights,0.000,1116.113
 Lights Internal Gains Nominal, PERIMETER_MID_ZN_3_LIGHTS,BLDG_LIGHT_SCH,PERIMETER_MID_ZN_3,207.34,11.2,1763.098,8.503,157.985,0.000,0.700,0.200,0.100,1.000,General Lights,0.000,1763.098
 Lights Internal Gains Nominal, PERIMETER_MID_ZN_2_LIGHTS,BLDG_LIGHT_SCH,PERIMETER_MID_ZN_2,131.26,7.1,1116.187,8.503,157.985,0.000,0.700,0.200,0.100,1.000,General Lights,0.000,1116.187
 Lights Internal Gains Nominal, PERIMETER_MID_ZN_1_LIGHTS,BLDG_LIGHT_SCH,PERIMETER_MID_ZN_1,207.34,11.2,1763.098,8.503,157.985,0.000,0.700,0.200,0.100,1.000,General Lights,0.000,1763.098
 Lights Internal Gains Nominal, PERIMETER_MID_ZN_4_LIGHTS,BLDG_LIGHT_SCH,PERIMETER_MID_ZN_4,131.25,7.1,1116.113,8.503,157.985,0.000,0.700,0.200,0.100,1.000,General Lights,0.000,1116.113
! <ElectricEquipment Internal Gains Nominal>,Name,Schedule Name,Zone Name,Zone Floor Area {m2},# Zone Occupants,Equipment Level {W},Equipment/Floor Area {W/m2},Equipment per person {W/person},Fraction Latent,Fraction Radiant,Fraction Lost,Fraction Convected,End-Use SubCategory,Nominal Minimum Equipment Level {W},Nominal Maximum Equipment Level {W}
 ElectricEquipment Internal Gains Nominal, CORE_BOTTOM_MISCPLUG_EQUIP,BLDG_EQUIP_SCH,CORE_BOTTOM,983.54,52.9,7937.156,8.070,149.931,0.000,0.500,0.000,0.500,MiscPlug,0.000,7937.156
 ElectricEquipment Internal Gains Nominal, CORE_MID_MISCPLUG_EQUIP,BLDG_EQUIP_SCH,CORE_MID,983.54,52.9,7937.156,8.070,149.931,0.000,0.500,0.000,0.500,MiscPlug,0.000,7937.156
 ElectricEquipment Internal Gains Nominal, CORE_TOP_MISCPLUG_EQUIP,BLDG_EQUIP_SCH,CORE_TOP,983.54,52.9,7937.156,8.070,149.931,0.000,0.500,0.000,0.500,MiscPlug,0.000,7937.156
 ElectricEquipment Internal Gains Nominal, PERIMETER_TOP_ZN_3_MISCPLUG_EQUIP,BLDG_EQUIP_SCH,PERIMETER_TOP_ZN_3,207.34,11.2,1673.214,8.070,149.930,0.000,0.500,0.000,0.500,MiscPlug,0.000,1673.214
 ElectricEquipment Internal Gains Nominal, PERIMETER_TOP_ZN_2_MISCPLUG_EQUIP,BLDG_EQUIP_SCH,PERIMETER_TOP_ZN_2,131.26,7.1,1059.217,8.069,149.921,0.000,0.500,0.000,0.500,MiscPlug,0.000,1059.217
 ElectricEquipment Internal Gains Nominal, PERIMETER_TOP_ZN_1_MISCPLUG_EQUIP,BLDG_EQUIP_SCH,PERIMETER_TOP_ZN_1,207.34,11.2,1673.203,8.070,149.929,0.000,0.500,0.000,0.500,MiscPlug,0.000,1673.203
 ElectricEquipment Internal Gains Nominal, PERIMETER_TOP_ZN_4_MISCPLUG_EQUIP,BLDG_EQUIP_SCH,PERIMETER_TOP_ZN_4,131.25,7.1,1059.210,8.070,149.930,0.000,0.500,0.000,0.500,MiscPlug,0.000,1059.210
 ElectricEquipment Internal Gains Nominal, PERIMETER_BOT_ZN_3_MISCPLUG_EQUIP,BLDG_EQUIP_SCH,PERIMETER_BOT_ZN_3,207.34,11.2,1673.214,8.070,149.930,0.000,0.500,0.000,0.500,MiscPlug,0.000,1673.214
 ElectricEquipment Internal Gains Nominal, PERIMETER_BOT_ZN_2_MISCPLUG_EQUIP,BLDG_EQUIP_SCH,PERIMETER_BOT_ZN_2,131.26,7.1,1059.217,8.069,149.921,0.000,0.500,0.000,0.500,MiscPlug,0.000,1059.217
 ElectricEquipment Internal Gains Nominal, PERIMETER_BOT_ZN_1_MISCPLUG_EQUIP,BLDG_EQUIP_SCH,PERIMETER_BOT_ZN_1,207.34,11.2,1673.203,8.070,149.929,0.000,0.500,0.000,0.500,MiscPlug,0.000,1673.203
 ElectricEquipment Internal Gains Nominal, PERIMETER_BOT_ZN_4_MISCPLUG_EQUIP,BLDG_EQUIP_SCH,PERIMETER_BOT_ZN_4,131.25,7.1,1059.210,8.070,149.930,0.000,0.500,0.000,0.500,MiscPlug,0.000,1059.210
 ElectricEquipment Internal Gains Nominal, PERIMETER_MID_ZN_3_MISCPLUG_EQUIP,BLDG_EQUIP_SCH,PERIMETER_MID_ZN_3,207.34,11.2,1673.214,8.070,149.930,0.000,0.500,0.000,0.500,MiscPlug,0.000,1673.214
 ElectricEquipment Internal Gains Nominal, PERIMETER_MID_ZN_2_MISCPLUG_EQUIP,BLDG_EQUIP_SCH,PERIMETER_MID_ZN_2,131.26,7.1,1059.217,8.069,149.921,0.000,0.500,0.000,0.500,MiscPlug,0.000,1059.217
 ElectricEquipment Internal Gains Nominal, PERIMETER_MID_ZN_1_MISCPLUG_EQUIP,BLDG_EQUIP_SCH,PERIMETER_MID_ZN_1,207.34,11.2,1673.203,8.070,149.929,0.000,0.500,0.000,0.500,MiscPlug,0.000,1673.203
 ElectricEquipment Internal Gains Nominal, PERIMETER_MID_ZN_4_MISCPLUG_EQUIP,BLDG_EQUIP_SCH,PERIMETER_MID_ZN_4,131.25,7.1,1059.210,8.070,149.930,0.000,0.500,0.000,0.500,MiscPlug,0.000,1059.210
 ElectricEquipment Internal Gains Nominal, CORE_BOTTOM_ELEVATORS_EQUIP,BLDG_ELEVATORS,CORE_BOTTOM,983.54,52.9,32109.890,32.647,606.549,0.000,0.500,0.000,0.500,MiscPlug,0.000,22155.824
 ElectricEquipment Internal Gains Nominal, ELEVATORS_LIGHTS_FAN,ELEV_LIGHT_FAN_SCH_ADD_DF,CORE_BOTTOM,983.54,52.9,125.000,0.127,2.361,0.000,0.500,0.000,0.500,MiscPlug,0.000,86.250
! <Construction CTF>,Construction Name,Index,#Layers,#CTFs,Time Step {hours},ThermalConductance {w/m2-K},OuterThermalAbsorptance,InnerThermalAbsorptance,OuterSolarAbsorptance,InnerSolarAbsorptance,Roughness
! <Material CTF Summary>,Material Name,Thickness {m},Conductivity {w/m-K},Density {kg/m3},Specific Heat {J/kg-K},ThermalResistance {m2-K/w}
! <Material:Air>,Material Name,ThermalResistance {m2-K/w}
! <CTF>,Time,Outside,Cross,Inside,Flux (except final one)
 Construction CTF,SWINGING DOOR_CON,   1,   1,   1,   0.017,      2.101    ,   0.900,   0.900,   0.700,   0.700,MediumRough
 Material CTF Summary,OPAQUE DOOR PANEL_CON,  0.0000,         0.000,      0.000,        0.000,  0.4760    
 CTF,   1,       0.0000000    ,       0.0000000    ,      -0.0000000    ,      -0.0000000    
 CTF,   0,       2.1010000    ,       2.1010000    ,       2.1010000    
 Construction CTF,INTERIORFURNISHINGS,   2,   1,  17,   0.100,     0.8000    ,   0.900,   0.900,   0.700,   0.700,MediumSmooth
 Material CTF Summary,STD WOOD 6INCH,  0.1500,         0.120,    540.000,     1210.000,   1.250    
 CTF,  17,     -0.90079007E-12,      0.10053588E-19,     -0.90079705E-12,      0.36041705E-13
 CTF,  16,      0.12994501E-09,      0.14362381E-15,      0.12994500E-09,     -0.52870379E-11
 CTF,  15,     -0.10704352E-07,      0.35215962E-15,     -0.10704352E-07,      0.44428442E-09
 CTF,  14,      0.56022885E-06,      0.75971587E-14,      0.56022885E-06,     -0.23797974E-07
 CTF,  13,     -0.19623129E-04,      0.11875298E-11,     -0.19623129E-04,      0.85638647E-06
 CTF,  12,      0.47329417E-03,      0.84635786E-10,      0.47329417E-03,     -0.21312361E-04
 CTF,  11,     -0.79913137E-02,      0.28374579E-08,     -0.79913137E-02,      0.37305091E-03
 CTF,  10,      0.95413482E-01,      0.47432590E-07,      0.95413482E-01,     -0.46404581E-02
 CTF,   9,     -0.81085452    ,      0.40799225E-06,     -0.81085452    ,      0.41289246E-01
 CTF,   8,       4.9254726    ,      0.18261187E-05,       4.9254726    ,     -0.26380912    
 CTF,   7,      -21.427375    ,      0.42223363E-05,      -21.427375    ,       1.2120212    
 CTF,   6,       66.676295    ,      0.49043847E-05,       66.676295    ,      -3.9960028    
 CTF,   5,      -147.48837    ,      0.27066883E-05,      -147.48837    ,       9.3877258    
 CTF,   4,       228.64255    ,      0.64260075E-06,       228.64255    ,      -15.479788    
 CTF,   3,      -241.64982    ,      0.54857284E-07,      -241.64982    ,       17.414460    
 CTF,   2,       165.25879    ,      0.11609948E-08,       165.25879    ,      -12.676999    
 CTF,   1,      -65.742762    ,      0.86072332E-11,      -65.742762    ,       5.3653721    
 CTF,   0,       11.528221    ,     -0.10989922E-11,       11.528221    
 Construction CTF,INT_WALL,   6,   2,   9,   0.017,      6.299    ,   0.900,   0.900,   0.700,   0.700,Smooth
 Material CTF Summary,G01 13MM GYPSUM BOARD,  0.0127,         0.160,    800.000,     1090.000,  0.7937E-01
 Material CTF Summary,G01 13MM GYPSUM BOARD,  0.0127,         0.160,    800.000,     1090.000,  0.7937E-01
 CTF,   9,     -0.12864864E-10,      0.19924024E-12,     -0.12864866E-10,      0.20356029E-13
 CTF,   8,      0.28581050E-07,      0.80512746E-09,      0.28581050E-07,     -0.57880166E-10
 CTF,   7,     -0.19015195E-04,      0.61885852E-06,     -0.19015195E-04,      0.52113948E-07
 CTF,   6,      0.36312852E-02,      0.10455019E-03,      0.36312852E-02,     -0.13799496E-04
 CTF,   5,     -0.20653166    ,      0.42754902E-02,     -0.20653166    ,      0.10942145E-02
 CTF,   4,       3.9016148    ,      0.45374246E-01,       3.9016148    ,     -0.28783696E-01
 CTF,   3,      -27.862527    ,      0.12703483    ,      -27.862527    ,      0.28290664    
 CTF,   2,       82.798732    ,      0.85517023E-01,       82.798732    ,      -1.1270974    
 CTF,   1,      -103.81107    ,      0.96927578E-02,      -103.81107    ,       1.8287075    
 CTF,   0,       45.448212    ,      0.41260040E-04,       45.448212    
 Construction CTF,EXT_SLAB_8IN_WITH_CARPET,   7,   2,  10,   0.117,      3.285    ,   0.900,   0.900,   0.700,   0.700,MediumRough
 Material CTF Summary,200MM NORMALWEIGHT CONCRETE FLOOR,  0.2032,         2.310,   2322.000,      832.000,  0.8797E-01
 Material CTF Summary,CP02 CARPET PAD,  0.0000,         0.000,      0.000,        0.000,  0.2165    
 CTF,  10,      0.91217396E-10,      0.12066199E-12,      0.43442676E-12,     -0.34263869E-13
 CTF,   9,     -0.13339235E-06,      0.14971363E-09,     -0.61933620E-09,      0.77339419E-10
 CTF,   8,      0.60511275E-04,      0.50648844E-07,      0.32924193E-06,     -0.53971974E-07
 CTF,   7,     -0.86826746E-02,      0.49380015E-05,     -0.62492280E-04,      0.11744830E-04
 CTF,   6,      0.42045978    ,      0.14553982E-03,      0.42160742E-02,     -0.84674922E-03
 CTF,   5,      -7.6281196    ,      0.13530616E-02,     -0.10714107    ,      0.22283744E-01
 CTF,   4,       58.507638    ,      0.39774644E-02,       1.1219226    ,     -0.23838991    
 CTF,   3,      -210.01536    ,      0.35868711E-02,      -5.2727467    ,       1.1377900    
 CTF,   2,       371.32864    ,      0.65678470E-03,       11.684734    ,      -2.5535954    
 CTF,   1,      -313.31785    ,      0.14323339E-03,      -11.897712    ,       2.6297558    
 CTF,   0,       100.72304    ,      0.44180478E-04,       4.4766127    
 Construction CTF,INT_SLAB_FLOOR,  11,   2,   9,   0.033,      3.839    ,   0.900,   0.900,   0.700,   0.700,MediumRough
 Material CTF Summary,100MM NORMALWEIGHT CONCRETE FLOOR,  0.1016,         2.310,   2322.000,      832.000,  0.4398E-01
 Material CTF Summary,CP02 CARPET PAD,  0.0000,         0.000,      0.000,        0.000,  0.2165    
 CTF,   9,      0.37403193E-14,     -0.22400978E-15,     -0.19740008E-10,      0.51264724E-17
 CTF,   8,      0.30887990E-03,      0.43820143E-10,      0.55556998E-05,     -0.11383955E-05
 CTF,   7,     -0.26410297E-01,      0.84047718E-07,     -0.48304805E-03,      0.10025605E-03
 CTF,   6,      0.82217991    ,      0.11548211E-04,      0.15499758E-01,     -0.32544879E-02
 CTF,   5,      -11.731247    ,      0.32429097E-03,     -0.23230838    ,      0.49277582E-01
 CTF,   4,       81.889815    ,      0.23153540E-02,       1.7426778    ,     -0.37289939    
 CTF,   3,      -287.58037    ,      0.48643510E-02,      -6.7121893    ,       1.4471037    
 CTF,   2,       511.51122    ,      0.25453480E-02,       13.243360    ,      -2.8743141    
 CTF,   1,      -437.96036    ,      0.38740098E-03,      -12.598424    ,       2.7512751    
 CTF,   0,       143.08528    ,      0.35904521E-04,       4.5522761    
 Construction CTF,INT_SLAB_CEILING,  12,   2,   9,   0.033,      3.839    ,   0.900,   0.900,   0.700,   0.700,VeryRough
 Material CTF Summary,CP02 CARPET PAD,  0.0000,         0.000,      0.000,        0.000,  0.2165    
 Material CTF Summary,100MM NORMALWEIGHT CONCRETE FLOOR,  0.1016,         2.310,   2322.000,      832.000,  0.4398E-01
 CTF,   9,     -0.19740008E-10,     -0.22400978E-15,      0.37403193E-14,      0.51264724E-17
 CTF,   8,      0.55556998E-05,      0.43820143E-10,      0.30887990E-03,     -0.11383955E-05
 CTF,   7,     -0.48304805E-03,      0.84047718E-07,     -0.26410297E-01,      0.10025605E-03
 CTF,   6,      0.15499758E-01,      0.11548211E-04,      0.82217991    ,     -0.32544879E-02
 CTF,   5,     -0.23230838    ,      0.32429097E-03,      -11.731247    ,      0.49277582E-01
 CTF,   4,       1.7426778    ,      0.23153540E-02,       81.889815    ,     -0.37289939    
 CTF,   3,      -6.7121893    ,      0.48643510E-02,      -287.58037    ,       1.4471037    
 CTF,   2,       13.243360    ,      0.25453480E-02,       511.51122    ,      -2.8743141    
 CTF,   1,      -12.598424    ,      0.38740098E-03,      -437.96036    ,       2.7512751    
 CTF,   0,       4.5522761    ,      0.35904521E-04,       143.08528    
 Construction CTF,NONRES_ROOF,  16,   3,   9,   0.017,     0.2283    ,   0.750,   0.900,   0.450,   0.700,Rough
 Material CTF Summary,F13 BUILT-UP ROOFING,  0.0095,         0.160,   1120.000,     1460.000,  0.5938E-01
 Material CTF Summary,NONRES_ROOF_INSULATION,  0.0000,         0.000,      0.000,        0.000,   4.319    
 Material CTF Summary,F08 METAL SURFACE,  0.0800,        45.280,   7824.000,      500.000,  0.1767E-02
 CTF,   9,     -0.43258034E-11,      0.21803284E-13,     -0.76362143E-09,      0.54118681E-14
 CTF,   8,      0.21207188E-07,      0.93652533E-11,      0.20471217E-05,     -0.30598546E-10
 CTF,   7,     -0.25132364E-04,      0.92506045E-08,     -0.16869456E-02,      0.51163533E-07
 CTF,   6,      0.58424327E-02,      0.17993480E-05,      0.33788811    ,     -0.16435211E-04
 CTF,   5,     -0.43293976    ,      0.77612365E-04,      -16.436550    ,      0.16875003E-02
 CTF,   4,       7.8266389    ,      0.81612608E-03,       278.95453    ,     -0.44680127E-01
 CTF,   3,      -53.108100    ,      0.21765656E-02,      -1647.4963    ,      0.41264186    
 CTF,   2,       141.00532    ,      0.13604734E-02,       4145.1693    ,      -1.4834416    
 CTF,   1,      -157.02087    ,      0.13944989E-03,      -4487.9669    ,       2.0937809    
 CTF,   0,       61.728713    ,      0.48702009E-06,       1727.4443    
 Construction CTF,NONRES_EXT_WALL,  19,   4,  15,   0.017,     0.4678    ,   0.900,   0.900,   0.700,   0.700,Smooth
 Material CTF Summary,F07 25MM STUCCO,  0.0254,         0.720,   1856.000,      840.000,  0.3528E-01
 Material CTF Summary,G01 16MM GYPSUM BOARD,  0.0159,         0.160,    800.000,     1090.000,  0.9938E-01
 Material CTF Summary,NONRES_EXTERIOR_WALL_INSULATION,  0.0000,         0.000,      0.000,        0.000,   1.903    
 Material CTF Summary,G01 16MM GYPSUM BOARD,  0.0159,         0.160,    800.000,     1090.000,  0.9938E-01
 CTF,  15,     -0.10070276E-11,      0.22929184E-18,     -0.36462522E-12,      0.26046478E-14
 CTF,  14,      0.26166055E-09,     -0.40658457E-14,      0.94292374E-10,     -0.67015113E-12
 CTF,  13,     -0.41854882E-07,      0.13228779E-13,     -0.15050060E-07,      0.11203476E-09
 CTF,  12,      0.40943178E-05,      0.15971652E-11,      0.14695954E-05,     -0.11559748E-07
 CTF,  11,     -0.24395011E-03,      0.15308813E-09,     -0.87401409E-04,      0.73403909E-06
 CTF,  10,      0.88470036E-02,      0.67336544E-08,      0.31618475E-02,     -0.28677819E-04
 CTF,   9,     -0.19574029    ,      0.13974012E-06,     -0.69827464E-01,      0.69075971E-03
 CTF,   8,       2.6595105    ,      0.13879423E-05,      0.94753768    ,     -0.10308068E-01
 CTF,   7,      -22.551263    ,      0.65935702E-05,      -8.0210874    ,      0.96638929E-01
 CTF,   6,       121.38991    ,      0.14705131E-04,       43.112361    ,     -0.57744924    
 CTF,   5,      -420.04482    ,      0.14729615E-04,      -149.02695    ,       2.2197586    
 CTF,   4,       937.96046    ,      0.60825039E-05,       332.48983    ,      -5.4973763    
 CTF,   3,      -1335.6986    ,      0.88045340E-06,      -473.11753    ,       8.6539844    
 CTF,   2,       1166.4673    ,      0.32013803E-07,       412.91397    ,      -8.3170114    
 CTF,   1,      -567.62134    ,      0.14129815E-09,      -200.83165    ,       4.4310049    
 CTF,   0,       117.62594    ,     -0.30266268E-11,       41.600311    
 Construction CTF,DROPCEILING, 130,   1,   5,   0.017,      4.488    ,   0.900,   0.900,   0.700,   0.700,MediumSmooth
 Material CTF Summary,AC02 ACOUSTIC CEILING,  0.0127,         0.057,    288.000,     1339.000,  0.2228    
 CTF,   5,     -0.43576264E-05,      0.32533453E-06,     -0.43576264E-05,      0.35441793E-07
 CTF,   4,      0.45178569E-02,      0.57997009E-03,      0.45178569E-02,     -0.48068764E-04
 CTF,   3,     -0.48570000    ,      0.54522555E-01,     -0.48570000    ,      0.77136304E-02
 CTF,   2,       7.1688400    ,      0.52847179    ,       7.1688400    ,     -0.17737175    
 CTF,   1,      -22.746003    ,      0.64259973    ,      -22.746003    ,      0.88271706    
 CTF,   0,       17.346410    ,      0.61886911E-01,       17.346410    
 Construction CTF,INT_SLAB_FLOOR_RAD, 131,   3,  10,   0.033,      3.850    ,   0.900,   0.900,   0.700,   0.700,MediumRough
 Material CTF Summary,70MM NORMALWEIGHT CONCRETE FLOOR,  0.0700,         2.310,   2322.000,      832.000,  0.3030E-01
 Material CTF Summary,30MM NORMALWEIGHT CONCRETE FLOOR,  0.0300,         2.310,   2322.000,      832.000,  0.1299E-01
 Material CTF Summary,CP02 CARPET PAD,  0.0000,         0.000,      0.000,        0.000,  0.2165    
 CTF,  10,     -0.20797877E-14,     -0.31972823E-15,      0.25477934E-14,      0.14911733E-15
 CTF,   9,     -0.14411091E-08,      0.25953855E-13,     -0.13096893E-09,      0.43803577E-11
 CTF,   8,      0.22235871E-04,      0.30083608E-09,      0.36869494E-06,     -0.67606483E-07
 CTF,   7,     -0.50558612E-02,      0.22004937E-06,     -0.77485162E-04,      0.15692394E-04
 CTF,   6,      0.30267765    ,      0.23292301E-04,      0.47237754E-02,     -0.98818915E-03
 CTF,   5,      -6.6114518    ,      0.55425875E-03,     -0.11014609    ,      0.23405710E-01
 CTF,   4,       59.966687    ,      0.35116253E-02,       1.1036847    ,     -0.23688063    
 CTF,   3,      -246.73996    ,      0.63083822E-02,      -5.1324147    ,       1.1100065    
 CTF,   2,       483.80059    ,      0.27664574E-02,       11.464796    ,      -2.4957950    
 CTF,   1,      -441.07588    ,      0.30497726E-03,      -11.857152    ,       2.5967447    
 CTF,   0,       150.37582    ,      0.29812471E-04,       4.5400255    
 QTF,  10,      0.36444031E-16,     -0.87876357E-16
 QTF,   9,      0.85519713E-14,     -0.52195238E-11
 QTF,   8,     -0.38259105E-10,     -0.28843784E-08
 QTF,   7,     -0.66458475E-07,      0.17471522E-06
 QTF,   6,     -0.28905445E-05,     -0.32173522E-07
 QTF,   5,      0.96890438E-04,     -0.66487519E-04
 QTF,   4,      0.13373409E-02,      0.49614312E-03
 QTF,   3,      0.10474476E-02,     -0.53872569E-03
 QTF,   2,     -0.37205959E-02,     -0.14808732E-02
 QTF,   1,     -0.17883648E-02,      0.17744016E-02
 QTF,   0,     -0.53776409E-04,      0.22267197E-03
 Source/Sink Loc Internal Temp QTF,  10,     -0.24988682E-16,     -0.72153681E-16,     -0.94690383E-17
 Source/Sink Loc Internal Temp QTF,   9,     -0.86585795E-14,     -0.52193935E-11,      0.10614500E-11
 Source/Sink Loc Internal Temp QTF,   8,      0.38259267E-10,     -0.28844822E-08,     -0.13173255E-08
 Source/Sink Loc Internal Temp QTF,   7,      0.66458409E-07,      0.17473922E-06,      0.12589807E-06
 Source/Sink Loc Internal Temp QTF,   6,      0.28905487E-05,     -0.33684639E-07,     -0.42348554E-05
 Source/Sink Loc Internal Temp QTF,   5,     -0.96890536E-04,     -0.66451785E-04,      0.59145398E-04
 Source/Sink Loc Internal Temp QTF,   4,     -0.13373400E-02,      0.49578285E-03,     -0.31422237E-03
 Source/Sink Loc Internal Temp QTF,   3,     -0.10474523E-02,     -0.53705014E-03,      0.40823403E-03
 Source/Sink Loc Internal Temp QTF,   2,      0.37206062E-02,     -0.14845917E-02,      0.10297479E-02
 Source/Sink Loc Internal Temp QTF,   1,      0.17883542E-02,      0.17781913E-02,     -0.28443535E-02
 Source/Sink Loc Internal Temp QTF,   0,      0.53780434E-04,      0.22125625E-03,      0.17590138E-02
 User Loc Internal Temp QTF,  10,     -0.24988682E-16,     -0.72153681E-16,     -0.94690383E-17
 User Loc Internal Temp QTF,   9,     -0.86585795E-14,     -0.52193935E-11,      0.10614500E-11
 User Loc Internal Temp QTF,   8,      0.38259267E-10,     -0.28844822E-08,     -0.13173255E-08
 User Loc Internal Temp QTF,   7,      0.66458409E-07,      0.17473922E-06,      0.12589807E-06
 User Loc Internal Temp QTF,   6,      0.28905487E-05,     -0.33684639E-07,     -0.42348554E-05
 User Loc Internal Temp QTF,   5,     -0.96890536E-04,     -0.66451785E-04,      0.59145398E-04
 User Loc Internal Temp QTF,   4,     -0.13373400E-02,      0.49578285E-03,     -0.31422237E-03
 User Loc Internal Temp QTF,   3,     -0.10474523E-02,     -0.53705014E-03,      0.40823403E-03
 User Loc Internal Temp QTF,   2,      0.37206062E-02,     -0.14845917E-02,      0.10297479E-02
 User Loc Internal Temp QTF,   1,      0.17883542E-02,      0.17781913E-02,     -0.28443535E-02
 User Loc Internal Temp QTF,   0,      0.53780434E-04,      0.22125625E-03,      0.17590138E-02
 Construction CTF,EXT_SLAB_8IN_WITH_CARPET_RAD, 132,   3,  11,   0.100,      3.300    ,   0.900,   0.900,   0.700,   0.700,MediumRough
 Material CTF Summary,170MM NORMALWEIGHT CONCRETE FLOOR,  0.1700,         2.310,   2322.000,      832.000,  0.7359E-01
 Material CTF Summary,30MM NORMALWEIGHT CONCRETE FLOOR,  0.0300,         2.310,   2322.000,      832.000,  0.1299E-01
 Material CTF Summary,CP02 CARPET PAD,  0.0000,         0.000,      0.000,        0.000,  0.2165    
 CTF,  11,     -0.47850853E-12,     -0.67757168E-15,     -0.18096704E-14,      0.96884190E-16
 CTF,  10,      0.12690910E-08,      0.99160418E-12,      0.53646007E-11,     -0.66494749E-12
 CTF,   9,     -0.10332940E-05,      0.70614962E-09,     -0.49047466E-08,      0.78649266E-09
 CTF,   8,      0.28171161E-03,      0.14561638E-06,      0.16781846E-05,     -0.30920618E-06
 CTF,   7,     -0.26698113E-01,      0.91906910E-05,     -0.21106224E-03,      0.41848805E-04
 CTF,   6,      0.93765246    ,      0.18609965E-03,      0.10070574E-01,     -0.20773284E-02
 CTF,   5,      -13.403610    ,      0.12534356E-02,     -0.19504411    ,      0.41171587E-01
 CTF,   4,       86.638448    ,      0.27541638E-02,       1.6662796    ,     -0.35718076    
 CTF,   3,      -275.36938    ,      0.19564737E-02,      -6.7510305    ,       1.4643883    
 CTF,   2,       445.93949    ,      0.16041737E-03,       13.434011    ,      -2.9438834    
 CTF,   1,      -352.51163    ,      0.14878131E-03,      -12.638330    ,       2.7955947    
 CTF,   0,       107.80186    ,     -0.49552960E-04,       4.4806718    
 QTF,  11,      0.12242951E-15,      0.38418961E-16
 QTF,  10,      0.15696498E-12,      0.42865441E-13
 QTF,   9,      0.14715247E-09,     -0.77620904E-10
 QTF,   8,      0.33734949E-07,      0.21615197E-07
 QTF,   7,      0.20112779E-05,     -0.15540821E-05
 QTF,   6,      0.30161455E-04,      0.30380037E-04
 QTF,   5,      0.63025344E-04,     -0.77594272E-04
 QTF,   4,     -0.37863702E-03,     -0.14610470E-02
 QTF,   3,     -0.84534558E-03,      0.82878715E-02
 QTF,   2,     -0.32604001E-03,     -0.12870764E-01
 QTF,   1,     -0.18215346E-04,      0.34296509E-02
 QTF,   0,      0.43939636E-07,      0.31354335E-02
 Source/Sink Loc Internal Temp QTF,  11,     -0.36495989E-15,      0.55595335E-16,      0.34917340E-16
 Source/Sink Loc Internal Temp QTF,  10,     -0.15720664E-12,      0.42823727E-13,     -0.57205052E-13
 Source/Sink Loc Internal Temp QTF,   9,     -0.14715287E-09,     -0.77616609E-10,      0.35795975E-10
 Source/Sink Loc Internal Temp QTF,   8,     -0.33734978E-07,      0.21613621E-07,     -0.75739356E-08
 Source/Sink Loc Internal Temp QTF,   7,     -0.20112741E-05,     -0.15538688E-05,      0.53007151E-06
 Source/Sink Loc Internal Temp QTF,   6,     -0.30161647E-04,      0.30369454E-04,     -0.12998881E-04
 Source/Sink Loc Internal Temp QTF,   5,     -0.63021553E-04,     -0.77384902E-04,      0.12055680E-03
 Source/Sink Loc Internal Temp QTF,   4,      0.37860423E-03,     -0.14628559E-02,     -0.39988172E-03
 Source/Sink Loc Internal Temp QTF,   3,      0.84547925E-03,      0.82952319E-02,     -0.10855371E-03
 Source/Sink Loc Internal Temp QTF,   2,      0.32577376E-03,     -0.12885381E-01,      0.32451695E-02
 Source/Sink Loc Internal Temp QTF,   1,      0.18464763E-04,      0.34432855E-02,     -0.60077431E-02
 Source/Sink Loc Internal Temp QTF,   0,     -0.13142113E-06,      0.31306751E-02,      0.32713285E-02
 User Loc Internal Temp QTF,  11,     -0.36495989E-15,      0.55595335E-16,      0.34917340E-16
 User Loc Internal Temp QTF,  10,     -0.15720664E-12,      0.42823727E-13,     -0.57205052E-13
 User Loc Internal Temp QTF,   9,     -0.14715287E-09,     -0.77616609E-10,      0.35795975E-10
 User Loc Internal Temp QTF,   8,     -0.33734978E-07,      0.21613621E-07,     -0.75739356E-08
 User Loc Internal Temp QTF,   7,     -0.20112741E-05,     -0.15538688E-05,      0.53007151E-06
 User Loc Internal Temp QTF,   6,     -0.30161647E-04,      0.30369454E-04,     -0.12998881E-04
 User Loc Internal Temp QTF,   5,     -0.63021553E-04,     -0.77384902E-04,      0.12055680E-03
 User Loc Internal Temp QTF,   4,      0.37860423E-03,     -0.14628559E-02,     -0.39988172E-03
 User Loc Internal Temp QTF,   3,      0.84547925E-03,      0.82952319E-02,     -0.10855371E-03
 User Loc Internal Temp QTF,   2,      0.32577376E-03,     -0.12885381E-01,      0.32451695E-02
 User Loc Internal Temp QTF,   1,      0.18464763E-04,      0.34432855E-02,     -0.60077431E-02
 User Loc Internal Temp QTF,   0,     -0.13142113E-06,      0.31306751E-02,      0.32713285E-02
 Construction CTF,NONRES_EXT_WALL_RAD, 133,   3,  14,   0.017,      4.273    ,   0.900,   0.900,   0.700,   0.700,Smooth
 Material CTF Summary,F07 25MM STUCCO,  0.0254,         0.720,   1856.000,      840.000,  0.3528E-01
 Material CTF Summary,G01 16MM GYPSUM BOARD,  0.0159,         0.160,    800.000,     1090.000,  0.9938E-01
 Material CTF Summary,G01 16MM GYPSUM BOARD,  0.0159,         0.160,    800.000,     1090.000,  0.9938E-01
 CTF,  14,      0.14980936E-10,     -0.25815767E-14,      0.54079722E-11,     -0.37348035E-13
 CTF,  13,     -0.32652690E-08,      0.23790043E-13,     -0.11758849E-08,      0.85000220E-11
 CTF,  12,      0.42384846E-06,      0.65888738E-11,      0.15230941E-06,     -0.11597891E-08
 CTF,  11,     -0.33086463E-04,      0.10345203E-08,     -0.11860882E-04,      0.96080791E-07
 CTF,  10,      0.15531273E-02,      0.69763613E-07,      0.55566580E-03,     -0.48390502E-05
 CTF,   9,     -0.43947949E-01,      0.21186846E-05,     -0.15699725E-01,      0.14854017E-03
 CTF,   8,      0.75475334    ,      0.29715472E-04,      0.26905833    ,     -0.27940441E-02
 CTF,   7,      -7.9535406    ,      0.19385334E-03,      -2.8301089    ,      0.32524729E-01
 CTF,   6,       52.211539    ,      0.58114304E-03,       18.555726    ,     -0.23734894    
 CTF,   5,      -216.31337    ,      0.77096871E-03,      -76.782812    ,       1.0964769    
 CTF,   4,       568.11160    ,      0.41875145E-03,       201.43280    ,      -3.2123809    
 CTF,   3,      -935.91983    ,      0.80104843E-04,      -331.56483    ,       5.8941014    
 CTF,   2,       931.71858    ,      0.39586235E-05,       329.85722    ,      -6.5139706    
 CTF,   1,      -510.19116    ,      0.23300585E-07,      -180.52013    ,       3.9427608    
 CTF,   0,       117.62594    ,      0.26080722E-11,       41.600311    
 QTF,  14,      0.38456357E-15,     -0.10584730E-14
 QTF,  13,     -0.43394236E-14,      0.52886302E-13
 QTF,  12,     -0.11641686E-11,      0.20117445E-10
 QTF,  11,      0.33482503E-10,     -0.25678034E-08
 QTF,  10,      0.61850242E-08,      0.81189478E-07
 QTF,   9,      0.49173328E-07,      0.10437794E-06
 QTF,   8,     -0.17401099E-05,     -0.31822970E-04
 QTF,   7,     -0.11199501E-04,      0.33100694E-03
 QTF,   6,      0.36873315E-04,     -0.74629861E-03
 QTF,   5,      0.15137673E-03,     -0.28276216E-02
 QTF,   4,     -0.71277636E-04,      0.12824536E-01
 QTF,   3,     -0.23908027E-03,     -0.12513840E-01
 QTF,   2,     -0.68990086E-04,     -0.30891494E-02
 QTF,   1,     -0.27853729E-05,      0.60554509E-02
 QTF,   0,     -0.28398448E-08,      0.27772813E-03
 Source/Sink Loc Internal Temp QTF,  14,      0.10487716E-16,     -0.11588347E-14,     -0.22090803E-14
 Source/Sink Loc Internal Temp QTF,  13,      0.47601361E-14,      0.52774572E-13,      0.39555045E-12
 Source/Sink Loc Internal Temp QTF,  12,      0.11646394E-11,      0.20117400E-10,     -0.41777518E-10
 Source/Sink Loc Internal Temp QTF,  11,     -0.33482254E-10,     -0.25678034E-08,      0.26357088E-08
 Source/Sink Loc Internal Temp QTF,  10,     -0.61850243E-08,      0.81189478E-07,     -0.99527790E-07
 Source/Sink Loc Internal Temp QTF,   9,     -0.49173328E-07,      0.10437794E-06,      0.22525145E-05
 Source/Sink Loc Internal Temp QTF,   8,      0.17401099E-05,     -0.31822970E-04,     -0.30566180E-04
 Source/Sink Loc Internal Temp QTF,   7,      0.11199501E-04,      0.33100694E-03,      0.24639648E-03
 Source/Sink Loc Internal Temp QTF,   6,     -0.36873315E-04,     -0.74629861E-03,     -0.11418414E-02
 Source/Sink Loc Internal Temp QTF,   5,     -0.15137673E-03,     -0.28276216E-02,      0.26899480E-02
 Source/Sink Loc Internal Temp QTF,   4,      0.71277636E-04,      0.12824536E-01,     -0.11537729E-02
 Source/Sink Loc Internal Temp QTF,   3,      0.23908027E-03,     -0.12513840E-01,     -0.92470938E-02
 Source/Sink Loc Internal Temp QTF,   2,      0.68990087E-04,     -0.30891494E-02,      0.22122444E-01
 Source/Sink Loc Internal Temp QTF,   1,      0.27853722E-05,      0.60554509E-02,     -0.20387728E-01
 Source/Sink Loc Internal Temp QTF,   0,      0.28400190E-08,      0.27772813E-03,      0.69279000E-02
 User Loc Internal Temp QTF,  14,      0.10487716E-16,     -0.11588347E-14,     -0.22090803E-14
 User Loc Internal Temp QTF,  13,      0.47601361E-14,      0.52774572E-13,      0.39555045E-12
 User Loc Internal Temp QTF,  12,      0.11646394E-11,      0.20117400E-10,     -0.41777518E-10
 User Loc Internal Temp QTF,  11,     -0.33482254E-10,     -0.25678034E-08,      0.26357088E-08
 User Loc Internal Temp QTF,  10,     -0.61850243E-08,      0.81189478E-07,     -0.99527790E-07
 User Loc Internal Temp QTF,   9,     -0.49173328E-07,      0.10437794E-06,      0.22525145E-05
 User Loc Internal Temp QTF,   8,      0.17401099E-05,     -0.31822970E-04,     -0.30566180E-04
 User Loc Internal Temp QTF,   7,      0.11199501E-04,      0.33100694E-03,      0.24639648E-03
 User Loc Internal Temp QTF,   6,     -0.36873315E-04,     -0.74629861E-03,     -0.11418414E-02
 User Loc Internal Temp QTF,   5,     -0.15137673E-03,     -0.28276216E-02,      0.26899480E-02
 User Loc Internal Temp QTF,   4,      0.71277636E-04,      0.12824536E-01,     -0.11537729E-02
 User Loc Internal Temp QTF,   3,      0.23908027E-03,     -0.12513840E-01,     -0.92470938E-02
 User Loc Internal Temp QTF,   2,      0.68990087E-04,     -0.30891494E-02,      0.22122444E-01
 User Loc Internal Temp QTF,   1,      0.27853722E-05,      0.60554509E-02,     -0.20387728E-01
 User Loc Internal Temp QTF,   0,      0.28400190E-08,      0.27772813E-03,      0.69279000E-02
 Construction CTF,iz-INT_SLAB_FLOOR_RAD, 135,   3,  10,   0.033,      3.850    ,   0.900,   0.900,   0.700,   0.700,VeryRough
 Material CTF Summary,CP02 CARPET PAD,  0.0000,         0.000,      0.000,        0.000,  0.2165    
 Material CTF Summary,30MM NORMALWEIGHT CONCRETE FLOOR,  0.0300,         2.310,   2322.000,      832.000,  0.1299E-01
 Material CTF Summary,70MM NORMALWEIGHT CONCRETE FLOOR,  0.0700,         2.310,   2322.000,      832.000,  0.3030E-01
 CTF,  10,      0.25155036E-14,      0.32194461E-15,     -0.29631885E-14,      0.15488408E-15
 CTF,   9,     -0.13096895E-09,      0.25994632E-13,     -0.14411102E-08,      0.43803622E-11
 CTF,   8,      0.36869494E-06,      0.30083582E-09,      0.22235871E-04,     -0.67606483E-07
 CTF,   7,     -0.77485162E-04,      0.22004943E-06,     -0.50558612E-02,      0.15692394E-04
 CTF,   6,      0.47237754E-02,      0.23292297E-04,      0.30267765    ,     -0.98818915E-03
 CTF,   5,     -0.11014609    ,      0.55425886E-03,      -6.6114518    ,      0.23405710E-01
 CTF,   4,       1.1036847    ,      0.35116243E-02,       59.966687    ,     -0.23688063    
 CTF,   3,      -5.1324147    ,      0.63083870E-02,      -246.73996    ,       1.1100065    
 CTF,   2,       11.464796    ,      0.27664467E-02,       483.80059    ,      -2.4957950    
 CTF,   1,      -11.857152    ,      0.30498819E-03,      -441.07588    ,       2.5967447    
 CTF,   0,       4.5400255    ,     -0.29816559E-04,       150.37582    
 QTF,  10,      0.68298283E-15,      0.79839999E-16
 QTF,   9,     -0.23717079E-10,      0.57078546E-14
 QTF,   8,      0.12149103E-07,      0.65597946E-10
 QTF,   7,     -0.10777829E-05,      0.47526290E-07
 QTF,   6,      0.34320039E-04,      0.50491568E-05
 QTF,   5,     -0.43769481E-03,      0.11982285E-03
 QTF,   4,      0.20395548E-02,      0.76182957E-03
 QTF,   3,     -0.10431576E-02,      0.13580482E-02
 QTF,   2,     -0.13919213E-01,      0.61570904E-03
 QTF,   1,      0.29926043E-01,      0.48877661E-04
 QTF,   0,     -0.17180601E-01,      0.86987145E-07
 Source/Sink Loc Internal Temp QTF,  10,     -0.70030676E-15,     -0.21404670E-16,     -0.15159644E-15
 Source/Sink Loc Internal Temp QTF,   9,      0.23717208E-10,      0.55128368E-14,      0.51341219E-11
 Source/Sink Loc Internal Temp QTF,   8,     -0.12149214E-07,      0.65600670E-10,     -0.26299896E-08
 Source/Sink Loc Internal Temp QTF,   7,      0.10778089E-05,      0.47525531E-07,      0.23331476E-06
 Source/Sink Loc Internal Temp QTF,   6,     -0.34321674E-04,      0.50492046E-05,     -0.74294950E-05
 Source/Sink Loc Internal Temp QTF,   5,      0.43773346E-03,      0.11982172E-03,      0.94750782E-04
 Source/Sink Loc Internal Temp QTF,   4,     -0.20399440E-02,      0.76184096E-03,     -0.44151406E-03
 Source/Sink Loc Internal Temp QTF,   3,      0.10449653E-02,      0.13579952E-02,      0.22579469E-03
 Source/Sink Loc Internal Temp QTF,   2,      0.13915208E-01,      0.61582708E-03,      0.30132777E-02
 Source/Sink Loc Internal Temp QTF,   1,     -0.29921967E-01,      0.48756835E-04,     -0.64784275E-02
 Source/Sink Loc Internal Temp QTF,   0,      0.17179080E-01,      0.13235680E-06,      0.37192683E-02
 User Loc Internal Temp QTF,  10,     -0.70030676E-15,     -0.21404670E-16,     -0.15159644E-15
 User Loc Internal Temp QTF,   9,      0.23717208E-10,      0.55128368E-14,      0.51341219E-11
 User Loc Internal Temp QTF,   8,     -0.12149214E-07,      0.65600670E-10,     -0.26299896E-08
 User Loc Internal Temp QTF,   7,      0.10778089E-05,      0.47525531E-07,      0.23331476E-06
 User Loc Internal Temp QTF,   6,     -0.34321674E-04,      0.50492046E-05,     -0.74294950E-05
 User Loc Internal Temp QTF,   5,      0.43773346E-03,      0.11982172E-03,      0.94750782E-04
 User Loc Internal Temp QTF,   4,     -0.20399440E-02,      0.76184096E-03,     -0.44151406E-03
 User Loc Internal Temp QTF,   3,      0.10449653E-02,      0.13579952E-02,      0.22579469E-03
 User Loc Internal Temp QTF,   2,      0.13915208E-01,      0.61582708E-03,      0.30132777E-02
 User Loc Internal Temp QTF,   1,     -0.29921967E-01,      0.48756835E-04,     -0.64784275E-02
 User Loc Internal Temp QTF,   0,      0.17179080E-01,      0.13235680E-06,      0.37192683E-02
! <WindowConstruction>,Construction Name,Index,#Layers,Roughness,Conductance {W/m2-K},SHGC,Solar Transmittance at Normal Incidence,Visible Transmittance at Normal Incidence
! <WindowMaterial:Glazing>, Material Name, Optical Data Type, Spectral Data Set Name, Thickness {m}, Solar Transmittance,Front Solar Reflectance, Back Solar Reflectance, Visible Transmittance, Front Visible Reflectance,Back Visible Reflectance,Infrared Transmittance, Front Thermal Emissivity, Back Thermal Emissivity,Conductivity {W/m-K},Dirt Factor,Solar Diffusing
! <WindowMaterial:Gas>,Material Name,GasType,Thickness {m}
 WindowConstruction,WINDOW_U_1.22_SHGC_0.61,28,1,VerySmooth,5.778,0.623,0.487,0.749
 WindowMaterial:Glazing,GREEN 6MM,SpectralAverage,,6.00000E-003,0.48700,5.60000E-002,5.60000E-002,0.74900,7.00000E-002,7.00000E-002,0.00000,0.84000,0.84000,0.90000,1.00000,No
 WindowConstruction,WINDOW_U_1.22_SHGC_0.39,29,1,VerySmooth,5.067,0.400,0.241,0.301
 WindowMaterial:Glazing,REF B CLEAR HI 6MM,SpectralAverage,,6.00000E-003,0.24000,0.16000,0.32000,0.30000,0.16000,0.29000,0.00000,0.84000,0.60000,0.90000,1.00000,No
 WindowConstruction,WINDOW_U_1.22_SHGC_0.34,30,1,VerySmooth,4.913,0.365,0.201,0.221
 WindowMaterial:Glazing,REF C CLEAR HI 6MM,SpectralAverage,,6.00000E-003,0.20000,0.16000,0.39000,0.22000,0.17000,0.35000,0.00000,0.84000,0.55000,0.90000,1.00000,No
 WindowConstruction,WINDOW_U_1.22_SHGC_0.25,31,1,VerySmooth,5.778,0.306,9.905E-002,0.155
 WindowMaterial:Glazing,ECREF-1 COLORED 6MM,SpectralAverage,,6.00000E-003,9.90000E-002,0.21900,0.21900,0.15500,7.30000E-002,7.30000E-002,0.00000,0.84000,0.84000,0.90000,1.00000,No
 WindowConstruction,WINDOW_U_0.72_SHGC_0.25,32,1,VerySmooth,4.600,0.293,0.100,0.130
 WindowMaterial:Glazing,REF B TINT MID 6MM,SpectralAverage,,6.00000E-003,0.10000,0.11000,0.41000,0.13000,0.10000,0.32000,0.00000,0.84000,0.45000,0.90000,1.00000,No
 WindowConstruction,WINDOW_U_0.62_SHGC_0.39,33,3,VerySmooth,3.045,0.428,0.343,0.308
 WindowMaterial:Glazing,REF D CLEAR 6MM,SpectralAverage,,6.00000E-003,0.42900,0.30800,0.37900,0.33400,0.45300,0.50500,0.00000,0.84000,0.82000,0.90000,1.00000,No
 WindowMaterial:Gas,AIR 6MM,Air,6.300E-003
 WindowMaterial:Glazing,CLEAR 6MM,SpectralAverage,,6.00000E-003,0.77500,7.10000E-002,7.10000E-002,0.88100,8.00000E-002,8.00000E-002,0.00000,0.84000,0.84000,0.90000,1.00000,No
 WindowConstruction,WINDOW_U_0.57_SHGC_0.39,34,3,VerySmooth,3.045,0.428,0.343,0.308
 WindowMaterial:Glazing,REF D CLEAR 6MM,SpectralAverage,,6.00000E-003,0.42900,0.30800,0.37900,0.33400,0.45300,0.50500,0.00000,0.84000,0.82000,0.90000,1.00000,No
 WindowMaterial:Gas,AIR 6MM,Air,6.300E-003
 WindowMaterial:Glazing,CLEAR 6MM,SpectralAverage,,6.00000E-003,0.77500,7.10000E-002,7.10000E-002,0.88100,8.00000E-002,8.00000E-002,0.00000,0.84000,0.84000,0.90000,1.00000,No
 WindowConstruction,WINDOW_U_0.65_SHGC_0.25,35,3,VerySmooth,2.848,0.287,0.160,0.200
 WindowMaterial:Glazing,REF C CLEAR HI 6MM,SpectralAverage,,6.00000E-003,0.20000,0.16000,0.39000,0.22000,0.17000,0.35000,0.00000,0.84000,0.55000,0.90000,1.00000,No
 WindowMaterial:Gas,AIR 6MM,Air,6.300E-003
 WindowMaterial:Glazing,CLEAR 6MM,SpectralAverage,,6.00000E-003,0.77500,7.10000E-002,7.10000E-002,0.88100,8.00000E-002,8.00000E-002,0.00000,0.84000,0.84000,0.90000,1.00000,No
 WindowConstruction,WINDOW_U_0.62_SHGC_0.25,36,3,VerySmooth,2.848,0.287,0.160,0.200
 WindowMaterial:Glazing,REF C CLEAR HI 6MM,SpectralAverage,,6.00000E-003,0.20000,0.16000,0.39000,0.22000,0.17000,0.35000,0.00000,0.84000,0.55000,0.90000,1.00000,No
 WindowMaterial:Gas,AIR 6MM,Air,6.300E-003
 WindowMaterial:Glazing,CLEAR 6MM,SpectralAverage,,6.00000E-003,0.77500,7.10000E-002,7.10000E-002,0.88100,8.00000E-002,8.00000E-002,0.00000,0.84000,0.84000,0.90000,1.00000,No
 WindowConstruction,WINDOW_U_0.57_SHGC_0.25,37,3,VerySmooth,2.848,0.287,0.160,0.200
 WindowMaterial:Glazing,REF C CLEAR HI 6MM,SpectralAverage,,6.00000E-003,0.20000,0.16000,0.39000,0.22000,0.17000,0.35000,0.00000,0.84000,0.55000,0.90000,1.00000,No
 WindowMaterial:Gas,AIR 6MM,Air,6.300E-003
 WindowMaterial:Glazing,CLEAR 6MM,SpectralAverage,,6.00000E-003,0.77500,7.10000E-002,7.10000E-002,0.88100,8.00000E-002,8.00000E-002,0.00000,0.84000,0.84000,0.90000,1.00000,No
 WindowConstruction,WINDOW_U_0.62_SHGC_0.49,38,3,VerySmooth,3.058,0.502,0.373,0.505
 WindowMaterial:Glazing,BLUE 6MM,SpectralAverage,,6.00000E-003,0.48000,5.00000E-002,5.00000E-002,0.57000,6.00000E-002,6.00000E-002,0.00000,0.84000,0.84000,0.90000,1.00000,No
 WindowMaterial:Gas,AIR 6MM,Air,6.300E-003
 WindowMaterial:Glazing,CLEAR 6MM,SpectralAverage,,6.00000E-003,0.77500,7.10000E-002,7.10000E-002,0.88100,8.00000E-002,8.00000E-002,0.00000,0.84000,0.84000,0.90000,1.00000,No
 WindowConstruction,WINDOW_U_0.57_SHGC_0.49,39,3,VerySmooth,3.058,0.502,0.373,0.505
 WindowMaterial:Glazing,BLUE 6MM,SpectralAverage,,6.00000E-003,0.48000,5.00000E-002,5.00000E-002,0.57000,6.00000E-002,6.00000E-002,0.00000,0.84000,0.84000,0.90000,1.00000,No
 WindowMaterial:Gas,AIR 6MM,Air,6.300E-003
 WindowMaterial:Glazing,CLEAR 6MM,SpectralAverage,,6.00000E-003,0.77500,7.10000E-002,7.10000E-002,0.88100,8.00000E-002,8.00000E-002,0.00000,0.84000,0.84000,0.90000,1.00000,No
 WindowConstruction,WINDOW_U_0.52_SHGC_0.40,40,3,VerySmooth,2.653,0.426,0.343,0.308
 WindowMaterial:Glazing,REF D CLEAR 6MM,SpectralAverage,,6.00000E-003,0.42900,0.30800,0.37900,0.33400,0.45300,0.50500,0.00000,0.84000,0.82000,0.90000,1.00000,No
 WindowMaterial:Gas,AIR 13MM,Air,1.270E-002
 WindowMaterial:Glazing,CLEAR 6MM,SpectralAverage,,6.00000E-003,0.77500,7.10000E-002,7.10000E-002,0.88100,8.00000E-002,8.00000E-002,0.00000,0.84000,0.84000,0.90000,1.00000,No
 WindowConstruction,WINDOW_U_0.48_SHGC_0.40,41,3,VerySmooth,2.653,0.426,0.343,0.308
 WindowMaterial:Glazing,REF D CLEAR 6MM,SpectralAverage,,6.00000E-003,0.42900,0.30800,0.37900,0.33400,0.45300,0.50500,0.00000,0.84000,0.82000,0.90000,1.00000,No
 WindowMaterial:Gas,AIR 13MM,Air,1.270E-002
 WindowMaterial:Glazing,CLEAR 6MM,SpectralAverage,,6.00000E-003,0.77500,7.10000E-002,7.10000E-002,0.88100,8.00000E-002,8.00000E-002,0.00000,0.84000,0.84000,0.90000,1.00000,No
 WindowConstruction,WINDOW_U_0.42_SHGC_0.45,42,3,VerySmooth,2.493,0.426,0.343,0.308
 WindowMaterial:Glazing,REF D CLEAR 6MM,SpectralAverage,,6.00000E-003,0.42900,0.30800,0.37900,0.33400,0.45300,0.50500,0.00000,0.84000,0.82000,0.90000,1.00000,No
 WindowMaterial:Gas,ARGON 13MM,Argon,1.270E-002
 WindowMaterial:Glazing,CLEAR 6MM,SpectralAverage,,6.00000E-003,0.77500,7.10000E-002,7.10000E-002,0.88100,8.00000E-002,8.00000E-002,0.00000,0.84000,0.84000,0.90000,1.00000,No
 WindowConstruction,WINDOW_U_0.46_SHGC_0.45,43,3,VerySmooth,2.670,0.479,0.354,0.381
 WindowMaterial:Glazing,GREY 6MM,SpectralAverage,,6.00000E-003,0.45500,5.30000E-002,5.30000E-002,0.43100,5.20000E-002,5.20000E-002,0.00000,0.84000,0.84000,0.90000,1.00000,No
 WindowMaterial:Gas,AIR 13MM,Air,1.270E-002
 WindowMaterial:Glazing,CLEAR 6MM,SpectralAverage,,6.00000E-003,0.77500,7.10000E-002,7.10000E-002,0.88100,8.00000E-002,8.00000E-002,0.00000,0.84000,0.84000,0.90000,1.00000,No
 WindowConstruction,WINDOW_U_0.42_SHGC_0.40,44,3,VerySmooth,2.371,0.397,0.284,0.444
 WindowMaterial:Glazing,LOE TINT 6MM,SpectralAverage,,6.00000E-003,0.36000,9.30000E-002,0.20000,0.50000,3.50000E-002,5.40000E-002,0.00000,0.84000,0.10000,0.90000,1.00000,No
 WindowMaterial:Gas,AIR 6MM,Air,6.300E-003
 WindowMaterial:Glazing,CLEAR 6MM,SpectralAverage,,6.00000E-003,0.77500,7.10000E-002,7.10000E-002,0.88100,8.00000E-002,8.00000E-002,0.00000,0.84000,0.84000,0.90000,1.00000,No
 WindowConstruction,WINDOW_U_0.43_SHGC_0.26,45,3,VerySmooth,2.447,0.305,0.191,0.271
 WindowMaterial:Glazing,REF B CLEAR HI 6MM,SpectralAverage,,6.00000E-003,0.24000,0.16000,0.32000,0.30000,0.16000,0.29000,0.00000,0.84000,0.60000,0.90000,1.00000,No
 WindowMaterial:Gas,AIR 13MM,Air,1.270E-002
 WindowMaterial:Glazing,CLEAR 6MM,SpectralAverage,,6.00000E-003,0.77500,7.10000E-002,7.10000E-002,0.88100,8.00000E-002,8.00000E-002,0.00000,0.84000,0.84000,0.90000,1.00000,No
 WindowConstruction,WINDOW_U_0.44_SHGC_0.26,46,3,VerySmooth,2.447,0.305,0.191,0.271
 WindowMaterial:Glazing,REF B CLEAR HI 6MM,SpectralAverage,,6.00000E-003,0.24000,0.16000,0.32000,0.30000,0.16000,0.29000,0.00000,0.84000,0.60000,0.90000,1.00000,No
 WindowMaterial:Gas,AIR 13MM,Air,1.270E-002
 WindowMaterial:Glazing,CLEAR 6MM,SpectralAverage,,6.00000E-003,0.77500,7.10000E-002,7.10000E-002,0.88100,8.00000E-002,8.00000E-002,0.00000,0.84000,0.84000,0.90000,1.00000,No
 WindowConstruction,WINDOW_U_0.42_SHGC_0.35,47,3,VerySmooth,2.371,0.397,0.284,0.444
 WindowMaterial:Glazing,LOE TINT 6MM,SpectralAverage,,6.00000E-003,0.36000,9.30000E-002,0.20000,0.50000,3.50000E-002,5.40000E-002,0.00000,0.84000,0.10000,0.90000,1.00000,No
 WindowMaterial:Gas,AIR 6MM,Air,6.300E-003
 WindowMaterial:Glazing,CLEAR 6MM,SpectralAverage,,6.00000E-003,0.77500,7.10000E-002,7.10000E-002,0.88100,8.00000E-002,8.00000E-002,0.00000,0.84000,0.84000,0.90000,1.00000,No
 WindowConstruction,WINDOW_U_0.33_SHGC_0.40,48,3,VerySmooth,1.761,0.380,0.284,0.444
 WindowMaterial:Glazing,LOE TINT 6MM,SpectralAverage,,6.00000E-003,0.36000,9.30000E-002,0.20000,0.50000,3.50000E-002,5.40000E-002,0.00000,0.84000,0.10000,0.90000,1.00000,No
 WindowMaterial:Gas,AIR 13MM,Air,1.270E-002
 WindowMaterial:Glazing,CLEAR 6MM,SpectralAverage,,6.00000E-003,0.77500,7.10000E-002,7.10000E-002,0.88100,8.00000E-002,8.00000E-002,0.00000,0.84000,0.84000,0.90000,1.00000,No
 WindowConstruction,WINDOW_U_0.34_SHGC_0.40,49,3,VerySmooth,1.761,0.380,0.284,0.444
 WindowMaterial:Glazing,LOE TINT 6MM,SpectralAverage,,6.00000E-003,0.36000,9.30000E-002,0.20000,0.50000,3.50000E-002,5.40000E-002,0.00000,0.84000,0.10000,0.90000,1.00000,No
 WindowMaterial:Gas,AIR 13MM,Air,1.270E-002
 WindowMaterial:Glazing,CLEAR 6MM,SpectralAverage,,6.00000E-003,0.77500,7.10000E-002,7.10000E-002,0.88100,8.00000E-002,8.00000E-002,0.00000,0.84000,0.84000,0.90000,1.00000,No
 WindowConstruction,WINDOW_U_0.35_SHGC_0.35,50,3,VerySmooth,1.761,0.380,0.284,0.444
 WindowMaterial:Glazing,LOE TINT 6MM,SpectralAverage,,6.00000E-003,0.36000,9.30000E-002,0.20000,0.50000,3.50000E-002,5.40000E-002,0.00000,0.84000,0.10000,0.90000,1.00000,No
 WindowMaterial:Gas,AIR 13MM,Air,1.270E-002
 WindowMaterial:Glazing,CLEAR 6MM,SpectralAverage,,6.00000E-003,0.77500,7.10000E-002,7.10000E-002,0.88100,8.00000E-002,8.00000E-002,0.00000,0.84000,0.84000,0.90000,1.00000,No
 WindowConstruction,WINDOW_U_0.55_SHGC_0.31,51,3,VerySmooth,3.045,0.368,0.239,0.229
 WindowMaterial:Glazing,REF D TINT 6MM,SpectralAverage,,6.00000E-003,0.30000,0.14000,0.36000,0.25000,0.18000,0.45000,0.00000,0.84000,0.82000,0.90000,1.00000,No
 WindowMaterial:Gas,AIR 6MM,Air,6.300E-003
 WindowMaterial:Glazing,CLEAR 6MM,SpectralAverage,,6.00000E-003,0.77500,7.10000E-002,7.10000E-002,0.88100,8.00000E-002,8.00000E-002,0.00000,0.84000,0.84000,0.90000,1.00000,No
 WindowConstruction,WINDOW_U_0.43_SHGC_0.29,52,3,VerySmooth,2.272,0.313,0.208,0.408
 WindowMaterial:Glazing,LOE SPEC SEL TINT 6MM,SpectralAverage,,6.00000E-003,0.26000,0.14000,0.41000,0.46000,6.00000E-002,4.00000E-002,0.00000,0.84000,3.00000E-002,0.90000,1.00000,No
 WindowMaterial:Gas,AIR 6MM,Air,6.300E-003
 WindowMaterial:Glazing,CLEAR 6MM,SpectralAverage,,6.00000E-003,0.77500,7.10000E-002,7.10000E-002,0.88100,8.00000E-002,8.00000E-002,0.00000,0.84000,0.84000,0.90000,1.00000,No
 WindowConstruction,WINDOW_U_0.34_SHGC_0.45,53,3,VerySmooth,1.932,0.634,0.531,0.721
 WindowMaterial:Glazing,PYR B CLEAR 6MM,SpectralAverage,,6.00000E-003,0.68000,9.00000E-002,0.10000,0.81000,0.11000,0.12000,0.00000,0.84000,0.20000,0.90000,1.00000,No
 WindowMaterial:Gas,AIR 13MM,Air,1.270E-002
 WindowMaterial:Glazing,CLEAR 6MM,SpectralAverage,,6.00000E-003,0.77500,7.10000E-002,7.10000E-002,0.88100,8.00000E-002,8.00000E-002,0.00000,0.84000,0.84000,0.90000,1.00000,No
 WindowConstruction,WINDOW_U_0.56_SHGC_0.35,54,3,VerySmooth,3.045,0.368,0.239,0.229
 WindowMaterial:Glazing,REF D TINT 6MM,SpectralAverage,,6.00000E-003,0.30000,0.14000,0.36000,0.25000,0.18000,0.45000,0.00000,0.84000,0.82000,0.90000,1.00000,No
 WindowMaterial:Gas,AIR 6MM,Air,6.300E-003
 WindowMaterial:Glazing,CLEAR 6MM,SpectralAverage,,6.00000E-003,0.77500,7.10000E-002,7.10000E-002,0.88100,8.00000E-002,8.00000E-002,0.00000,0.84000,0.84000,0.90000,1.00000,No
 WindowConstruction,WINDOW_U_0.45_SHGC_0.31,55,3,VerySmooth,2.447,0.305,0.191,0.271
 WindowMaterial:Glazing,REF B CLEAR HI 6MM,SpectralAverage,,6.00000E-003,0.24000,0.16000,0.32000,0.30000,0.16000,0.29000,0.00000,0.84000,0.60000,0.90000,1.00000,No
 WindowMaterial:Gas,AIR 13MM,Air,1.270E-002
 WindowMaterial:Glazing,CLEAR 6MM,SpectralAverage,,6.00000E-003,0.77500,7.10000E-002,7.10000E-002,0.88100,8.00000E-002,8.00000E-002,0.00000,0.84000,0.84000,0.90000,1.00000,No
 WindowConstruction,WINDOW_U_0.33_SHGC_0.45,56,5,VerySmooth,1.745,0.462,0.377,0.637
 WindowMaterial:Glazing,CLEAR 3MM,SpectralAverage,,3.00000E-003,0.83700,7.50000E-002,7.50000E-002,0.89800,8.10000E-002,8.10000E-002,0.00000,0.84000,0.84000,0.90000,1.00000,No
 WindowMaterial:Gas,AIR 6MM,Air,6.300E-003
 WindowMaterial:Glazing,COATED POLY-77,SpectralAverage,,5.10000E-004,0.50400,0.40200,0.39800,0.76600,0.14700,0.16700,0.00000,7.50000E-002,0.72000,0.14000,1.00000,No
 WindowMaterial:Gas,AIR 6MM,Air,6.300E-003
 WindowMaterial:Glazing,CLEAR 3MM,SpectralAverage,,3.00000E-003,0.83700,7.50000E-002,7.50000E-002,0.89800,8.10000E-002,8.10000E-002,0.00000,0.84000,0.84000,0.90000,1.00000,No
 WindowConstruction,WINDOW_U_0.38_SHGC_0.26,57,3,VerySmooth,2.267,0.242,0.119,0.163
 WindowMaterial:Glazing,REF B TINT HI 6MM,SpectralAverage,,6.00000E-003,0.15000,9.00000E-002,0.33000,0.18000,8.00000E-002,0.28000,0.00000,0.84000,0.60000,0.90000,1.00000,No
 WindowMaterial:Gas,ARGON 13MM,Argon,1.270E-002
 WindowMaterial:Glazing,CLEAR 6MM,SpectralAverage,,6.00000E-003,0.77500,7.10000E-002,7.10000E-002,0.88100,8.00000E-002,8.00000E-002,0.00000,0.84000,0.84000,0.90000,1.00000,No
 WindowConstruction,WINDOW_U_0.25_SHGC_0.40,58,3,VerySmooth,1.493,0.373,0.284,0.444
 WindowMaterial:Glazing,LOE TINT 6MM,SpectralAverage,,6.00000E-003,0.36000,9.30000E-002,0.20000,0.50000,3.50000E-002,5.40000E-002,0.00000,0.84000,0.10000,0.90000,1.00000,No
 WindowMaterial:Gas,ARGON 13MM,Argon,1.270E-002
 WindowMaterial:Glazing,CLEAR 6MM,SpectralAverage,,6.00000E-003,0.77500,7.10000E-002,7.10000E-002,0.88100,8.00000E-002,8.00000E-002,0.00000,0.84000,0.84000,0.90000,1.00000,No
 WindowConstruction,WINDOW_U_0.35_SHGC_0.26,59,3,VerySmooth,2.158,0.238,0.136,0.173
 WindowMaterial:Glazing,REF C CLEAR MID 6MM,SpectralAverage,,6.00000E-003,0.17000,0.20000,0.42000,0.19000,0.21000,0.38000,0.00000,0.84000,0.51000,0.90000,1.00000,No
 WindowMaterial:Gas,ARGON 13MM,Argon,1.270E-002
 WindowMaterial:Glazing,CLEAR 6MM,SpectralAverage,,6.00000E-003,0.77500,7.10000E-002,7.10000E-002,0.88100,8.00000E-002,8.00000E-002,0.00000,0.84000,0.84000,0.90000,1.00000,No
 WindowConstruction,WINDOW_U_0.54_SHGC_0.27,60,3,VerySmooth,2.848,0.287,0.160,0.200
 WindowMaterial:Glazing,REF C CLEAR HI 6MM,SpectralAverage,,6.00000E-003,0.20000,0.16000,0.39000,0.22000,0.17000,0.35000,0.00000,0.84000,0.55000,0.90000,1.00000,No
 WindowMaterial:Gas,AIR 6MM,Air,6.300E-003
 WindowMaterial:Glazing,CLEAR 6MM,SpectralAverage,,6.00000E-003,0.77500,7.10000E-002,7.10000E-002,0.88100,8.00000E-002,8.00000E-002,0.00000,0.84000,0.84000,0.90000,1.00000,No
 WindowConstruction,WINDOW_U_0.54_SHGC_0.18,61,3,VerySmooth,2.779,0.187,4.810E-002,8.185E-002
 WindowMaterial:Glazing,REF A TINT MID 6MM,SpectralAverage,,6.00000E-003,6.00000E-002,0.13000,0.42000,9.00000E-002,0.14000,0.35000,0.00000,0.84000,0.47000,0.90000,1.00000,No
 WindowMaterial:Gas,AIR 6MM,Air,6.300E-003
 WindowMaterial:Glazing,CLEAR 6MM,SpectralAverage,,6.00000E-003,0.77500,7.10000E-002,7.10000E-002,0.88100,8.00000E-002,8.00000E-002,0.00000,0.84000,0.84000,0.90000,1.00000,No
 WindowConstruction,WINDOW_U_0.54_SHGC_0.13,62,3,VerySmooth,2.219,0.138,5.319E-002,7.288E-002
 WindowMaterial:Glazing,REF A CLEAR LO 6MM,SpectralAverage,,6.00000E-003,6.60000E-002,0.34100,0.49300,8.00000E-002,0.41000,0.37000,0.00000,0.84000,0.40000,0.90000,1.00000,No
 WindowMaterial:Gas,AIR 13MM,Air,1.270E-002
 WindowMaterial:Glazing,CLEAR 6MM,SpectralAverage,,6.00000E-003,0.77500,7.10000E-002,7.10000E-002,0.88100,8.00000E-002,8.00000E-002,0.00000,0.84000,0.84000,0.90000,1.00000,No
 WindowConstruction,WINDOW_U_0.33_SHGC_0.11,63,3,VerySmooth,1.614,0.119,4.705E-002,0.120
 WindowMaterial:Glazing,ECREF-2 COLORED 6MM,SpectralAverage,,6.00000E-003,9.90000E-002,0.21900,0.21900,0.15500,7.30000E-002,7.30000E-002,0.00000,0.84000,0.10000,0.90000,1.00000,No
 WindowMaterial:Gas,AIR 13MM,Air,1.270E-002
 WindowMaterial:Glazing,LOE SPEC SEL CLEAR 6MM REV,SpectralAverage,,6.00000E-003,0.43000,0.42000,0.30000,0.77000,6.00000E-002,7.00000E-002,0.00000,3.00000E-002,0.84000,0.90000,1.00000,No
 WindowConstruction,WINDOW_U_0.29_SHGC_0.22,64,5,VerySmooth,1.703,0.234,0.129,0.274
 WindowMaterial:Glazing,BRONZE 6MM,SpectralAverage,,6.00000E-003,0.48200,5.40000E-002,5.40000E-002,0.53400,5.70000E-002,5.70000E-002,0.00000,0.84000,0.84000,0.90000,1.00000,No
 WindowMaterial:Gas,AIR 6MM,Air,6.300E-003
 WindowMaterial:Glazing,COATED POLY-55,SpectralAverage,,5.10000E-004,0.32000,0.58200,0.59300,0.55100,0.33600,0.37500,0.00000,4.60000E-002,0.72000,0.14000,1.00000,No
 WindowMaterial:Gas,AIR 6MM,Air,6.300E-003
 WindowMaterial:Glazing,CLEAR 6MM,SpectralAverage,,6.00000E-003,0.77500,7.10000E-002,7.10000E-002,0.88100,8.00000E-002,8.00000E-002,0.00000,0.84000,0.84000,0.90000,1.00000,No
 WindowConstruction,WINDOW_U_0.29_SHGC_0.17,65,3,VerySmooth,1.761,0.169,8.718E-002,0.114
 WindowMaterial:Glazing,ECABS-2 COLORED 6MM,SpectralAverage,,6.00000E-003,0.11100,0.17900,0.17900,0.12800,8.10000E-002,8.10000E-002,0.00000,0.84000,0.10000,0.90000,1.00000,No
 WindowMaterial:Gas,AIR 13MM,Air,1.270E-002
 WindowMaterial:Glazing,CLEAR 6MM,SpectralAverage,,6.00000E-003,0.77500,7.10000E-002,7.10000E-002,0.88100,8.00000E-002,8.00000E-002,0.00000,0.84000,0.84000,0.90000,1.00000,No
 WindowConstruction,WINDOW_U_0.29_SHGC_0.11,66,3,VerySmooth,1.614,0.119,4.705E-002,0.120
 WindowMaterial:Glazing,ECREF-2 COLORED 6MM,SpectralAverage,,6.00000E-003,9.90000E-002,0.21900,0.21900,0.15500,7.30000E-002,7.30000E-002,0.00000,0.84000,0.10000,0.90000,1.00000,No
 WindowMaterial:Gas,AIR 13MM,Air,1.270E-002
 WindowMaterial:Glazing,LOE SPEC SEL CLEAR 6MM REV,SpectralAverage,,6.00000E-003,0.43000,0.42000,0.30000,0.77000,6.00000E-002,7.00000E-002,0.00000,3.00000E-002,0.84000,0.90000,1.00000,No
 WindowConstruction,WINDOW_U_0.24_SHGC_0.23,67,3,VerySmooth,1.333,0.283,0.208,0.408
 WindowMaterial:Glazing,LOE SPEC SEL TINT 6MM,SpectralAverage,,6.00000E-003,0.26000,0.14000,0.41000,0.46000,6.00000E-002,4.00000E-002,0.00000,0.84000,3.00000E-002,0.90000,1.00000,No
 WindowMaterial:Gas,ARGON 13MM,Argon,1.270E-002
 WindowMaterial:Glazing,CLEAR 6MM,SpectralAverage,,6.00000E-003,0.77500,7.10000E-002,7.10000E-002,0.88100,8.00000E-002,8.00000E-002,0.00000,0.84000,0.84000,0.90000,1.00000,No
 WindowConstruction,WINDOW_U_0.24_SHGC_0.16,68,3,VerySmooth,1.493,0.158,8.718E-002,0.114
 WindowMaterial:Glazing,ECABS-2 COLORED 6MM,SpectralAverage,,6.00000E-003,0.11100,0.17900,0.17900,0.12800,8.10000E-002,8.10000E-002,0.00000,0.84000,0.10000,0.90000,1.00000,No
 WindowMaterial:Gas,ARGON 13MM,Argon,1.270E-002
 WindowMaterial:Glazing,CLEAR 6MM,SpectralAverage,,6.00000E-003,0.77500,7.10000E-002,7.10000E-002,0.88100,8.00000E-002,8.00000E-002,0.00000,0.84000,0.84000,0.90000,1.00000,No
 WindowConstruction,WINDOW_U_0.24_SHGC_0.11,69,3,VerySmooth,1.318,0.115,5.180E-002,9.912E-002
 WindowMaterial:Glazing,ECABS-2 COLORED 6MM,SpectralAverage,,6.00000E-003,0.11100,0.17900,0.17900,0.12800,8.10000E-002,8.10000E-002,0.00000,0.84000,0.10000,0.90000,1.00000,No
 WindowMaterial:Gas,ARGON 13MM,Argon,1.270E-002
 WindowMaterial:Glazing,LOE SPEC SEL CLEAR 6MM REV,SpectralAverage,,6.00000E-003,0.43000,0.42000,0.30000,0.77000,6.00000E-002,7.00000E-002,0.00000,3.00000E-002,0.84000,0.90000,1.00000,No
 WindowConstruction,WINDOW_U_0.19_SHGC_0.20,70,5,VerySmooth,1.208,0.222,0.129,0.274
 WindowMaterial:Glazing,BRONZE 6MM,SpectralAverage,,6.00000E-003,0.48200,5.40000E-002,5.40000E-002,0.53400,5.70000E-002,5.70000E-002,0.00000,0.84000,0.84000,0.90000,1.00000,No
 WindowMaterial:Gas,AIR 13MM,Air,1.270E-002
 WindowMaterial:Glazing,COATED POLY-55,SpectralAverage,,5.10000E-004,0.32000,0.58200,0.59300,0.55100,0.33600,0.37500,0.00000,4.60000E-002,0.72000,0.14000,1.00000,No
 WindowMaterial:Gas,AIR 13MM,Air,1.270E-002
 WindowMaterial:Glazing,CLEAR 6MM,SpectralAverage,,6.00000E-003,0.77500,7.10000E-002,7.10000E-002,0.88100,8.00000E-002,8.00000E-002,0.00000,0.84000,0.84000,0.90000,1.00000,No
 WindowConstruction,WINDOW_U_0.71_SHGC_0.25,71,3,VerySmooth,2.848,0.287,0.160,0.200
 WindowMaterial:Glazing,REF C CLEAR HI 6MM,SpectralAverage,,6.00000E-003,0.20000,0.16000,0.39000,0.22000,0.17000,0.35000,0.00000,0.84000,0.55000,0.90000,1.00000,No
 WindowMaterial:Gas,AIR 6MM,Air,6.300E-003
 WindowMaterial:Glazing,CLEAR 6MM,SpectralAverage,,6.00000E-003,0.77500,7.10000E-002,7.10000E-002,0.88100,8.00000E-002,8.00000E-002,0.00000,0.84000,0.84000,0.90000,1.00000,No
 WindowConstruction,WINDOW_U_0.38_SHGC_0.30,72,3,VerySmooth,2.267,0.300,0.191,0.271
 WindowMaterial:Glazing,REF B CLEAR HI 6MM,SpectralAverage,,6.00000E-003,0.24000,0.16000,0.32000,0.30000,0.16000,0.29000,0.00000,0.84000,0.60000,0.90000,1.00000,No
 WindowMaterial:Gas,ARGON 13MM,Argon,1.270E-002
 WindowMaterial:Glazing,CLEAR 6MM,SpectralAverage,,6.00000E-003,0.77500,7.10000E-002,7.10000E-002,0.88100,8.00000E-002,8.00000E-002,0.00000,0.84000,0.84000,0.90000,1.00000,No
 WindowConstruction,WINDOW_U_0.36_SHGC_0.35,73,3,VerySmooth,2.272,0.313,0.208,0.408
 WindowMaterial:Glazing,LOE SPEC SEL TINT 6MM,SpectralAverage,,6.00000E-003,0.26000,0.14000,0.41000,0.46000,6.00000E-002,4.00000E-002,0.00000,0.84000,3.00000E-002,0.90000,1.00000,No
 WindowMaterial:Gas,AIR 6MM,Air,6.300E-003
 WindowMaterial:Glazing,CLEAR 6MM,SpectralAverage,,6.00000E-003,0.77500,7.10000E-002,7.10000E-002,0.88100,8.00000E-002,8.00000E-002,0.00000,0.84000,0.84000,0.90000,1.00000,No
 WindowConstruction,WINDOW_U_0.30_SHGC_0.40,74,3,VerySmooth,1.761,0.380,0.284,0.444
 WindowMaterial:Glazing,LOE TINT 6MM,SpectralAverage,,6.00000E-003,0.36000,9.30000E-002,0.20000,0.50000,3.50000E-002,5.40000E-002,0.00000,0.84000,0.10000,0.90000,1.00000,No
 WindowMaterial:Gas,AIR 13MM,Air,1.270E-002
 WindowMaterial:Glazing,CLEAR 6MM,SpectralAverage,,6.00000E-003,0.77500,7.10000E-002,7.10000E-002,0.88100,8.00000E-002,8.00000E-002,0.00000,0.84000,0.84000,0.90000,1.00000,No
 WindowConstruction,WINDOW_U_0.45_SHGC_0.27,75,3,VerySmooth,2.417,0.260,0.146,0.293
 WindowMaterial:Glazing,GLASS_12116_LAYERAVG,SpectralAverage,,4.75000E-003,0.17187,0.10946,0.21999,0.32277,0.18260,8.16540E-002,0.00000,0.84000,0.53827,1.00035,1.00000,No
 WindowMaterial:Gas,AIR 13MM,Air,1.270E-002
 WindowMaterial:Glazing,GLASS_102_LAYERAVG,SpectralAverage,,3.04800E-003,0.83385,7.47638E-002,7.48545E-002,0.89926,8.25630E-002,8.25640E-002,0.00000,0.84000,0.84000,1.00000,1.00000,No
 WindowConstruction,WINDOW_U_0.39_SHGC_0.36,76,3,VerySmooth,2.371,0.397,0.284,0.444
 WindowMaterial:Glazing,LOE TINT 6MM,SpectralAverage,,6.00000E-003,0.36000,9.30000E-002,0.20000,0.50000,3.50000E-002,5.40000E-002,0.00000,0.84000,0.10000,0.90000,1.00000,No
 WindowMaterial:Gas,AIR 6MM,Air,6.300E-003
 WindowMaterial:Glazing,CLEAR 6MM,SpectralAverage,,6.00000E-003,0.77500,7.10000E-002,7.10000E-002,0.88100,8.00000E-002,8.00000E-002,0.00000,0.84000,0.84000,0.90000,1.00000,No
 WindowConstruction,WINDOW_U_1.98_SHGC_0.36,77,1,VerySmooth,5.067,0.400,0.241,0.301
 WindowMaterial:Glazing,REF B CLEAR HI 6MM,SpectralAverage,,6.00000E-003,0.24000,0.16000,0.32000,0.30000,0.16000,0.29000,0.00000,0.84000,0.60000,0.90000,1.00000,No
 WindowConstruction,WINDOW_U_1.17_SHGC_0.39,78,1,VerySmooth,5.067,0.400,0.241,0.301
 WindowMaterial:Glazing,REF B CLEAR HI 6MM,SpectralAverage,,6.00000E-003,0.24000,0.16000,0.32000,0.30000,0.16000,0.29000,0.00000,0.84000,0.60000,0.90000,1.00000,No
 WindowConstruction,WINDOW_U_1.98_SHGC_0.61,79,1,VerySmooth,5.778,0.623,0.487,0.749
 WindowMaterial:Glazing,GREEN 6MM,SpectralAverage,,6.00000E-003,0.48700,5.60000E-002,5.60000E-002,0.74900,7.00000E-002,7.00000E-002,0.00000,0.84000,0.84000,0.90000,1.00000,No
[...]
HeatTransfer Surface,iz-CORE_MID_ZN_5_WALL_EAST,Wall,,CTF - ConductionTransferFunction,INT_WALL,6.299,3.242,,66.19,66.19,66.19,270.00,90.00,24.13,2.74,0.00,CORE_MID_ZN_5_WALL_EAST,Other/Same Surface Int Conv,ASHRAETARP,NoSun,NoWind,0.50,0.50,0.50,0.50,4
HeatTransfer Surface,PERIMETER_MID_ZN_2_FLOOR,Floor,,CTF - ConductionTransferFunction,INT_SLAB_FLOOR,3.839,1.986,,131.26,131.26,131.26,90.00,180.00,24.13,6.47,0.00,iz-PERIMETER_MID_ZN_2_FLOOR,Other/Same Surface Int Conv,ASHRAETARP,NoSun,NoWind,1.00,0.00,1.00,0.00,4
HeatTransfer Surface,PERIMETER_MID_ZN_2_CEILING,Roof,,CTF - ConductionTransferFunction,DROPCEILING,4.488,2.432,,131.26,131.26,131.26,270.00,0.00,24.13,6.47,0.00,iz-PERIMETER_MID_ZN_2_CEILING,Other/Same Surface Int Conv,ASHRAETARP,NoSun,NoWind,0.00,1.00,0.00,1.00,4
HeatTransfer Surface,PERIMETER_MID_ZN_2_INTERNALMASS_1,Internal Mass,,CTF - ConductionTransferFunction,INTERIORFURNISHINGS,0.800,0.800,,262.51,262.51,262.51,0.00,90.00,262.51,1.00,0.00,PERIMETER_MID_ZN_2_INTERNALMASS_1,Other/Same Surface Int Conv,ASHRAETARP,NoSun,NoWind,0.00,0.50,1.00,0.00,0
Zone Surfaces,PERIMETER_MID_ZN_1,8
HeatTransfer Surface,PERIMETER_MID_ZN_1_WALL_SOUTH,Wall,,CTF - ConductionTransferFunction,NONRES_EXT_WALL_RAD,4.273,2.606,,71.65,136.92,71.65,180.00,90.00,49.91,2.74,0.00,ExternalEnvironment,ASHRAETARP,ASHRAETARP,SunExposed,WindExposed,0.50,0.50,0.50,0.50,4
HeatTransfer Surface,PERIMETER_MID_ZN_1_WALL_SOUTH_WINDOW,Window,PERIMETER_MID_ZN_1_WALL_SOUTH,Window5 Detailed Fenestration,WINDOW_U_0.51_SHGC_0.25,N/A,2.898,No,65.26,65.26,65.26,180.00,90.00,49.91,1.31,0.00,ExternalEnvironment,ASHRAETARP,ASHRAETARP,SunExposed,WindExposed,0.50,0.50,0.50,0.50,4
HeatTransfer Surface,PERIMETER_MID_ZN_1_WALL_EAST,Wall,,CTF - ConductionTransferFunction,INT_WALL,6.299,3.242,,17.74,17.74,17.74,45.00,90.00,6.47,2.74,0.00,iz-PERIMETER_MID_ZN_1_WALL_EAST,Other/Same Surface Int Conv,ASHRAETARP,NoSun,NoWind,0.50,0.50,0.50,0.50,4
HeatTransfer Surface,iz-PERIMETER_MID_ZN_4_WALL_SOUTH,Wall,,CTF - ConductionTransferFunction,INT_WALL,6.299,3.242,,17.74,17.74,17.74,315.00,90.00,6.47,2.74,0.00,PERIMETER_MID_ZN_4_WALL_SOUTH,Other/Same Surface Int Conv,ASHRAETARP,NoSun,NoWind,0.50,0.50,0.50,0.50,4
HeatTransfer Surface,iz-CORE_MID_ZN_5_WALL_SOUTH,Wall,,CTF - ConductionTransferFunction,INT_WALL,6.299,3.242,,111.82,111.82,111.82,0.00,90.00,40.76,2.74,0.00,CORE_MID_ZN_5_WALL_SOUTH,Other/Same Surface Int Conv,ASHRAETARP,NoSun,NoWind,0.50,0.50,0.50,0.50,4
HeatTransfer Surface,PERIMETER_MID_ZN_1_FLOOR,Floor,,CTF - ConductionTransferFunction,INT_SLAB_FLOOR,3.839,1.986,,207.34,207.34,207.34,180.00,180.00,40.76,6.47,0.00,iz-PERIMETER_MID_ZN_1_FLOOR,Other/Same Surface Int Conv,ASHRAETARP,NoSun,NoWind,1.00,0.00,1.00,0.00,4
HeatTransfer Surface,PERIMETER_MID_ZN_1_CEILING,Roof,,CTF - ConductionTransferFunction,DROPCEILING,4.488,2.432,,207.34,207.34,207.34,0.00,0.00,40.76,6.47,0.00,iz-PERIMETER_MID_ZN_1_CEILING,Other/Same Surface Int Conv,ASHRAETARP,NoSun,NoWind,0.00,1.00,0.00,1.00,4
HeatTransfer Surface,PERIMETER_MID_ZN_1_INTERNALMASS_1,Internal Mass,,CTF - ConductionTransferFunction,INTERIORFURNISHINGS,0.800,0.800,,414.67,414.67,414.67,0.00,90.00,414.67,1.00,0.00,PERIMETER_MID_ZN_1_INTERNALMASS_1,Other/Same Surface Int Conv,ASHRAETARP,NoSun,NoWind,0.00,0.50,1.00,0.00,0
Zone Surfaces,PERIMETER_MID_ZN_4,8
HeatTransfer Surface,PERIMETER_MID_ZN_4_WALL_WEST,Wall,,CTF - ConductionTransferFunction,NONRES_EXT_WALL_RAD,4.273,2.606,,47.77,91.28,47.77,270.00,90.00,33.27,2.74,0.00,ExternalEnvironment,ASHRAETARP,ASHRAETARP,SunExposed,WindExposed,0.50,0.50,0.50,0.50,4
HeatTransfer Surface,PERIMETER_MID_ZN_4_WALL_WEST_WINDOW,Window,PERIMETER_MID_ZN_4_WALL_WEST,Window5 Detailed Fenestration,WINDOW_U_0.51_SHGC_0.25,N/A,2.898,No,43.51,43.51,43.51,270.00,90.00,33.27,1.31,0.00,ExternalEnvironment,ASHRAETARP,ASHRAETARP,SunExposed,WindExposed,0.50,0.50,0.50,0.50,4
HeatTransfer Surface,PERIMETER_MID_ZN_4_WALL_SOUTH,Wall,,CTF - ConductionTransferFunction,INT_WALL,6.299,3.242,,17.74,17.74,17.74,135.00,90.00,6.47,2.74,0.00,iz-PERIMETER_MID_ZN_4_WALL_SOUTH,Other/Same Surface Int Conv,ASHRAETARP,NoSun,NoWind,0.50,0.50,0.50,0.50,4
HeatTransfer Surface,iz-PERIMETER_MID_ZN_3_WALL_WEST,Wall,,CTF - ConductionTransferFunction,INT_WALL,6.299,3.242,,17.74,17.74,17.74,45.00,90.00,6.47,2.74,0.00,PERIMETER_MID_ZN_3_WALL_WEST,Other/Same Surface Int Conv,ASHRAETARP,NoSun,NoWind,0.50,0.50,0.50,0.50,4
HeatTransfer Surface,iz-CORE_MID_ZN_5_WALL_WEST,Wall,,CTF - ConductionTransferFunction,INT_WALL,6.299,3.242,,66.19,66.19,66.19,90.00,90.00,24.13,2.74,0.00,CORE_MID_ZN_5_WALL_WEST,Other/Same Surface Int Conv,ASHRAETARP,NoSun,NoWind,0.50,0.50,0.50,0.50,4
HeatTransfer Surface,PERIMETER_MID_ZN_4_FLOOR,Floor,,CTF - ConductionTransferFunction,INT_SLAB_FLOOR,3.839,1.986,,131.25,131.25,131.25,270.00,180.00,24.13,6.47,0.00,iz-PERIMETER_MID_ZN_4_FLOOR,Other/Same Surface Int Conv,ASHRAETARP,NoSun,NoWind,1.00,0.00,1.00,0.00,4
HeatTransfer Surface,PERIMETER_MID_ZN_4_CEILING,Roof,,CTF - ConductionTransferFunction,DROPCEILING,4.488,2.432,,131.25,131.25,131.25,90.00,0.00,24.13,6.47,0.00,iz-PERIMETER_MID_ZN_4_CEILING,Other/Same Surface Int Conv,ASHRAETARP,NoSun,NoWind,0.00,1.00,0.00,1.00,4
HeatTransfer Surface,PERIMETER_MID_ZN_4_INTERNALMASS_1,Internal Mass,,CTF - ConductionTransferFunction,INTERIORFURNISHINGS,0.800,0.800,,262.51,262.51,262.51,0.00,90.00,262.51,1.00,0.00,PERIMETER_MID_ZN_4_INTERNALMASS_1,Other/Same Surface Int Conv,ASHRAETARP,NoSun,NoWind,0.00,0.50,1.00,0.00,0
! <Environment>,Environment Name,Environment Type, Start Date, End Date, Start DayOfWeek, Duration {#days}, Source:Start DayOfWeek,  Use Daylight Saving, Use Holidays, Apply Weekend Holiday Rule,  Use Rain Values, Use Snow Values, Sky Temperature Model
! <Environment:Special Days>, Special Day Name, Special Day Type, Source, Start Date, Duration {#days}
! <Environment:Daylight Saving>, Daylight Saving Indicator, Source, Start Date, End Date
! <Environment:WarmupDays>, NumberofWarmupDays
Environment,ATLANTA-HARTSFIELD.JACKSON.INTL.AP_GA_USA ANN HTG 99.6% CONDNS DB,SizingPeriod:DesignDay,01/21,01/21,WinterDesignDay,1,N/A,N/A,N/A,N/A,N/A,N/A,Clark and Allen
Environment:Daylight Saving,No,SizingPeriod:DesignDay
! <Environment:Design Day Data>, Max Dry-Bulb Temp {C}, Temp Range {dC}, Temp Range Ind Type, Hum Ind Type, Hum Ind Value at Max Temp, Hum Ind Units, Pressure {Pa}, Wind Direction {deg CW from N}, Wind Speed {m/s}, Clearness, Rain, Snow
! <Environment:Design Day Misc>,DayOfYear,ASHRAE A Coeff,ASHRAE B Coeff,ASHRAE C Coeff,Solar Constant-Annual Variation,Eq of Time {minutes}, Solar Declination Angle {deg}, Solar Model
Environment:Design Day Data,-6.30,0.00,DefaultMultipliers,Wetbulb,-6.30,{C},97621,320,5.3,0.00,No,No
Environment:Design Day Misc, 21,1229.0,0.1415,5.7310E-002,1.0,-11.15,-20.1,ASHRAEClearSky
Environment:WarmupDays,  8
! <Warmup Convergence Information>,Zone Name,Environment Type/Name,Average Warmup Temperature Difference {deltaC},Std Dev Warmup Temperature Difference {deltaC},Max Temperature Pass/Fail Convergence,Min Temperature Pass/Fail Convergence,Average Warmup Load Difference {W},Std Dev Warmup Load Difference {W},Heating Load Pass/Fail Convergence,Cooling Load Pass/Fail Convergence
 Warmup Convergence Information,CORE_BOTTOM,SizingPeriod: ATLANTA-HARTSFIELD.JACKSON.INTL.AP_GA_USA ANN HTG 99.6% CONDNS DB,1.2737188064E-005,2.4177855346E-005,Pass,Pass,2.2479557193E-006,4.2671751934E-006,Pass,Pass
 Warmup Convergence Information,TOPFLOOR_PLENUM,SizingPeriod: ATLANTA-HARTSFIELD.JACKSON.INTL.AP_GA_USA ANN HTG 99.6% CONDNS DB,4.1553538940E-004,2.1584105842E-003,Pass,Pass,0.0000000000,0.0000000000,Pass,Pass
 Warmup Convergence Information,MIDFLOOR_PLENUM,SizingPeriod: ATLANTA-HARTSFIELD.JACKSON.INTL.AP_GA_USA ANN HTG 99.6% CONDNS DB,6.0066443701E-004,3.0557799960E-003,Pass,Pass,0.0000000000,0.0000000000,Pass,Pass
 Warmup Convergence Information,FIRSTFLOOR_PLENUM,SizingPeriod: ATLANTA-HARTSFIELD.JACKSON.INTL.AP_GA_USA ANN HTG 99.6% CONDNS DB,4.7235746409E-004,2.3853547118E-003,Pass,Pass,0.0000000000,0.0000000000,Pass,Pass
 Warmup Convergence Information,CORE_MID,SizingPeriod: ATLANTA-HARTSFIELD.JACKSON.INTL.AP_GA_USA ANN HTG 99.6% CONDNS DB,3.4774019021E-005,4.9155433218E-005,Pass,Pass,5.2360993084E-006,7.4018515468E-006,Pass,Pass
 Warmup Convergence Information,CORE_TOP,SizingPeriod: ATLANTA-HARTSFIELD.JACKSON.INTL.AP_GA_USA ANN HTG 99.6% CONDNS DB,4.3738461485E-005,4.9877333186E-005,Pass,Pass,7.6001062023E-006,8.6653456298E-006,Pass,Pass
 Warmup Convergence Information,PERIMETER_TOP_ZN_3,SizingPeriod: ATLANTA-HARTSFIELD.JACKSON.INTL.AP_GA_USA ANN HTG 99.6% CONDNS DB,6.2417357377E-004,3.8455459886E-003,Pass,Pass,1.5447916540E-004,9.5107986268E-004,Pass,Pass
 Warmup Convergence Information,PERIMETER_TOP_ZN_2,SizingPeriod: ATLANTA-HARTSFIELD.JACKSON.INTL.AP_GA_USA ANN HTG 99.6% CONDNS DB,4.6971819762E-004,3.3603519579E-003,Pass,Pass,1.3235667466E-004,9.4630951652E-004,Pass,Pass
 Warmup Convergence Information,PERIMETER_TOP_ZN_1,SizingPeriod: ATLANTA-HARTSFIELD.JACKSON.INTL.AP_GA_USA ANN HTG 99.6% CONDNS DB,5.5558895903E-004,3.6176985659E-003,Pass,Pass,1.3997339059E-004,9.1085619730E-004,Pass,Pass
 Warmup Convergence Information,PERIMETER_TOP_ZN_4,SizingPeriod: ATLANTA-HARTSFIELD.JACKSON.INTL.AP_GA_USA ANN HTG 99.6% CONDNS DB,4.5442832542E-004,3.2958248998E-003,Pass,Pass,1.3276996456E-004,9.6235619126E-004,Pass,Pass
 Warmup Convergence Information,PERIMETER_BOT_ZN_3,SizingPeriod: ATLANTA-HARTSFIELD.JACKSON.INTL.AP_GA_USA ANN HTG 99.6% CONDNS DB,2.9543852004E-004,2.2200534373E-003,Pass,Pass,6.1979448535E-005,4.6565844796E-004,Pass,Pass
 Warmup Convergence Information,PERIMETER_BOT_ZN_2,SizingPeriod: ATLANTA-HARTSFIELD.JACKSON.INTL.AP_GA_USA ANN HTG 99.6% CONDNS DB,2.6273990339E-004,1.9102095559E-003,Pass,Pass,6.4023943540E-005,4.6544082269E-004,Pass,Pass
 Warmup Convergence Information,PERIMETER_BOT_ZN_1,SizingPeriod: ATLANTA-HARTSFIELD.JACKSON.INTL.AP_GA_USA ANN HTG 99.6% CONDNS DB,7.3245533838E-003,4.3398356125E-003,Pass,Pass,0.0000000000,0.0000000000,Pass,Pass
 Warmup Convergence Information,PERIMETER_BOT_ZN_4,SizingPeriod: ATLANTA-HARTSFIELD.JACKSON.INTL.AP_GA_USA ANN HTG 99.6% CONDNS DB,2.5296430643E-004,1.8688029516E-003,Pass,Pass,6.3817482197E-005,4.7142325427E-004,Pass,Pass
 Warmup Convergence Information,PERIMETER_MID_ZN_3,SizingPeriod: ATLANTA-HARTSFIELD.JACKSON.INTL.AP_GA_USA ANN HTG 99.6% CONDNS DB,4.0324278077E-004,3.2464146622E-003,Pass,Pass,7.9847245665E-005,6.4286580046E-004,Pass,Pass
 Warmup Convergence Information,PERIMETER_MID_ZN_2,SizingPeriod: ATLANTA-HARTSFIELD.JACKSON.INTL.AP_GA_USA ANN HTG 99.6% CONDNS DB,3.9956741730E-004,2.8621471992E-003,Pass,Pass,8.9904131001E-005,6.4396991379E-004,Pass,Pass
 Warmup Convergence Information,PERIMETER_MID_ZN_1,SizingPeriod: ATLANTA-HARTSFIELD.JACKSON.INTL.AP_GA_USA ANN HTG 99.6% CONDNS DB,3.6476212429E-004,3.0584100012E-003,Pass,Pass,7.3810096079E-005,6.1890941807E-004,Pass,Pass
 Warmup Convergence Information,PERIMETER_MID_ZN_4,SizingPeriod: ATLANTA-HARTSFIELD.JACKSON.INTL.AP_GA_USA ANN HTG 99.6% CONDNS DB,3.8739214096E-004,2.8094143106E-003,Pass,Pass,9.0063166008E-005,6.5312440988E-004,Pass,Pass
Environment,ATLANTA-HARTSFIELD.JACKSON.INTL.AP_GA_USA ANN CLG .4% CONDNS DB=>MWB,SizingPeriod:DesignDay,07/21,07/21,SummerDesignDay,1,N/A,N/A,N/A,N/A,N/A,N/A,Clark and Allen
Environment:Daylight Saving,No,SizingPeriod:DesignDay
Environment:Design Day Data,34.40,9.50,DefaultMultipliers,Wetbulb,23.50,{C},97621,300,4.0,0.00,No,No
Environment:Design Day Misc,202,1084.4,0.2082,0.1365,1.0,-6.23,20.6,ASHRAETau
Environment:WarmupDays,  6
 Warmup Convergence Information,CORE_BOTTOM,SizingPeriod: ATLANTA-HARTSFIELD.JACKSON.INTL.AP_GA_USA ANN CLG .4% CONDNS DB=>MWB,9.1926829536E-004,3.0893822234E-003,Pass,Pass,1.5809738748E-004,3.7272738515E-004,Pass,Pass
 Warmup Convergence Information,TOPFLOOR_PLENUM,SizingPeriod: ATLANTA-HARTSFIELD.JACKSON.INTL.AP_GA_USA ANN CLG .4% CONDNS DB=>MWB,1.3204625707E-003,5.1771969562E-004,Pass,Pass,0.0000000000,0.0000000000,Pass,Pass
 Warmup Convergence Information,MIDFLOOR_PLENUM,SizingPeriod: ATLANTA-HARTSFIELD.JACKSON.INTL.AP_GA_USA ANN CLG .4% CONDNS DB=>MWB,1.2225269725E-003,4.1429616017E-004,Pass,Pass,0.0000000000,0.0000000000,Pass,Pass
 Warmup Convergence Information,FIRSTFLOOR_PLENUM,SizingPeriod: ATLANTA-HARTSFIELD.JACKSON.INTL.AP_GA_USA ANN CLG .4% CONDNS DB=>MWB,1.1299642302E-003,3.7767973020E-004,Pass,Pass,0.0000000000,0.0000000000,Pass,Pass
 Warmup Convergence Information,CORE_MID,SizingPeriod: ATLANTA-HARTSFIELD.JACKSON.INTL.AP_GA_USA ANN CLG .4% CONDNS DB=>MWB,1.0266151784E-003,3.4627431530E-003,Pass,Pass,2.0920287656E-004,4.8780162707E-004,Pass,Pass
 Warmup Convergence Information,CORE_TOP,SizingPeriod: ATLANTA-HARTSFIELD.JACKSON.INTL.AP_GA_USA ANN CLG .4% CONDNS DB=>MWB,9.8810956978E-004,3.4162065343E-003,Pass,Pass,2.0113025996E-004,4.7426587275E-004,Pass,Pass
 Warmup Convergence Information,PERIMETER_TOP_ZN_3,SizingPeriod: ATLANTA-HARTSFIELD.JACKSON.INTL.AP_GA_USA ANN CLG .4% CONDNS DB=>MWB,2.9558888530E-003,2.8679875043E-003,Pass,Pass,4.1382902719E-004,4.1941410665E-004,Pass,Pass
 Warmup Convergence Information,PERIMETER_TOP_ZN_2,SizingPeriod: ATLANTA-HARTSFIELD.JACKSON.INTL.AP_GA_USA ANN CLG .4% CONDNS DB=>MWB,4.7788103602E-003,5.3747260393E-003,Pass,Pass,7.2889576957E-004,8.2702371077E-004,Pass,Pass
 Warmup Convergence Information,PERIMETER_TOP_ZN_1,SizingPeriod: ATLANTA-HARTSFIELD.JACKSON.INTL.AP_GA_USA ANN CLG .4% CONDNS DB=>MWB,4.0198730438E-003,3.3078352309E-003,Pass,Pass,5.4493799746E-004,4.1193800945E-004,Pass,Pass
 Warmup Convergence Information,PERIMETER_TOP_ZN_4,SizingPeriod: ATLANTA-HARTSFIELD.JACKSON.INTL.AP_GA_USA ANN CLG .4% CONDNS DB=>MWB,5.3438279789E-003,5.9478189631E-003,Pass,Pass,7.5579018143E-004,7.3072374225E-004,Pass,Pass
 Warmup Convergence Information,PERIMETER_BOT_ZN_3,SizingPeriod: ATLANTA-HARTSFIELD.JACKSON.INTL.AP_GA_USA ANN CLG .4% CONDNS DB=>MWB,3.3474167088E-003,3.3791512612E-003,Pass,Pass,4.3193163244E-004,4.4685220575E-004,Pass,Pass
 Warmup Convergence Information,PERIMETER_BOT_ZN_2,SizingPeriod: ATLANTA-HARTSFIELD.JACKSON.INTL.AP_GA_USA ANN CLG .4% CONDNS DB=>MWB,5.9644667840E-003,5.5468165109E-003,Pass,Pass,8.4124183336E-004,8.6126015182E-004,Pass,Pass
 Warmup Convergence Information,PERIMETER_BOT_ZN_1,SizingPeriod: ATLANTA-HARTSFIELD.JACKSON.INTL.AP_GA_USA ANN CLG .4% CONDNS DB=>MWB,5.5140189102E-003,4.5365591800E-003,Pass,Pass,0.0000000000,0.0000000000,Pass,Pass
 Warmup Convergence Information,PERIMETER_BOT_ZN_4,SizingPeriod: ATLANTA-HARTSFIELD.JACKSON.INTL.AP_GA_USA ANN CLG .4% CONDNS DB=>MWB,6.5823141410E-003,6.4247267214E-003,Pass,Pass,8.4748485573E-004,7.8729037697E-004,Pass,Pass
 Warmup Convergence Information,PERIMETER_MID_ZN_3,SizingPeriod: ATLANTA-HARTSFIELD.JACKSON.INTL.AP_GA_USA ANN CLG .4% CONDNS DB=>MWB,3.0337203422E-003,2.9968284962E-003,Pass,Pass,4.2747189427E-004,4.4125493692E-004,Pass,Pass
 Warmup Convergence Information,PERIMETER_MID_ZN_2,SizingPeriod: ATLANTA-HARTSFIELD.JACKSON.INTL.AP_GA_USA ANN CLG .4% CONDNS DB=>MWB,4.7778321818E-003,5.4518562265E-003,Pass,Pass,7.3340831541E-004,8.4562656757E-004,Pass,Pass
 Warmup Convergence Information,PERIMETER_MID_ZN_1,SizingPeriod: ATLANTA-HARTSFIELD.JACKSON.INTL.AP_GA_USA ANN CLG .4% CONDNS DB=>MWB,4.0990952905E-003,3.4036331885E-003,Pass,Pass,5.6152606288E-004,4.3413285280E-004,Pass,Pass
 Warmup Convergence Information,PERIMETER_MID_ZN_4,SizingPeriod: ATLANTA-HARTSFIELD.JACKSON.INTL.AP_GA_USA ANN CLG .4% CONDNS DB=>MWB,5.3375709361E-003,6.0940114174E-003,Pass,Pass,7.5971385304E-004,7.5803661975E-004,Pass,Pass
Environment,RUNPERIOD 1,WeatherFileRunPeriod,07/01/2007,07/02/2007,Sunday,2,Use RunPeriod Specified Day,No,No,No,Yes,Yes,Clark and Allen
Environment:Daylight Saving,No,RunPeriod Object
Environment:Special Days,NEW YEARS DAY,Holiday,InputFile,01/01,  1Environment:Special Days,VETERANS DAY,Holiday,InputFile,11/11,  1Environment:Special Days,CHRISTMAS,Holiday,InputFile,12/25,  1Environment:Special Days,INDEPENDENCE DAY,Holiday,InputFile,07/04,  1Environment:Special Days,MLK DAY,Holiday,InputFile,01/15,  1Environment:Special Days,PRESIDENTS DAY,Holiday,InputFile,02/19,  1Environment:Special Days,MEMORIAL DAY,Holiday,InputFile,05/28,  1Environment:Special Days,LABOR DAY,Holiday,InputFile,09/03,  1Environment:Special Days,COLUMBUS DAY,Holiday,InputFile,10/08,  1Environment:Special Days,THANKSGIVING,Holiday,InputFile,11/22,  1Environment:WarmupDays,  6
 Warmup Convergence Information,CORE_BOTTOM,RunPeriod: RUNPERIOD 1,8.5905188040E-004,6.6128963103E-004,Pass,Pass,0.0000000000,0.0000000000,Pass,Pass
 Warmup Convergence Information,TOPFLOOR_PLENUM,RunPeriod: RUNPERIOD 1,1.0486840759E-003,7.9444303585E-004,Pass,Pass,0.0000000000,0.0000000000,Pass,Pass
 Warmup Convergence Information,MIDFLOOR_PLENUM,RunPeriod: RUNPERIOD 1,9.0014746027E-004,7.5225007041E-004,Pass,Pass,0.0000000000,0.0000000000,Pass,Pass
 Warmup Convergence Information,FIRSTFLOOR_PLENUM,RunPeriod: RUNPERIOD 1,6.2611325113E-004,6.6985695899E-004,Pass,Pass,0.0000000000,0.0000000000,Pass,Pass
 Warmup Convergence Information,CORE_MID,RunPeriod: RUNPERIOD 1,3.6987893208E-004,7.3165906026E-004,Pass,Pass,0.0000000000,0.0000000000,Pass,Pass
 Warmup Convergence Information,CORE_TOP,RunPeriod: RUNPERIOD 1,6.9420312485E-004,6.0286670197E-004,Pass,Pass,0.0000000000,0.0000000000,Pass,Pass
 Warmup Convergence Information,PERIMETER_TOP_ZN_3,RunPeriod: RUNPERIOD 1,3.2007211931E-003,2.9361194996E-003,Pass,Pass,0.0000000000,0.0000000000,Pass,Pass
 Warmup Convergence Information,PERIMETER_TOP_ZN_2,RunPeriod: RUNPERIOD 1,7.7684121994E-003,9.1559730266E-003,Pass,Pass,0.0000000000,0.0000000000,Pass,Pass
 Warmup Convergence Information,PERIMETER_TOP_ZN_1,RunPeriod: RUNPERIOD 1,4.3673684776E-003,3.6809184285E-003,Pass,Pass,0.0000000000,0.0000000000,Pass,Pass
 Warmup Convergence Information,PERIMETER_TOP_ZN_4,RunPeriod: RUNPERIOD 1,4.7613464556E-003,5.0934910690E-003,Pass,Pass,0.0000000000,0.0000000000,Pass,Pass
 Warmup Convergence Information,PERIMETER_BOT_ZN_3,RunPeriod: RUNPERIOD 1,3.0024216205E-003,2.6956762470E-003,Pass,Pass,0.0000000000,0.0000000000,Pass,Pass
 Warmup Convergence Information,PERIMETER_BOT_ZN_2,RunPeriod: RUNPERIOD 1,7.7698471610E-003,9.6230968212E-003,Pass,Pass,0.0000000000,0.0000000000,Pass,Pass
 Warmup Convergence Information,PERIMETER_BOT_ZN_1,RunPeriod: RUNPERIOD 1,5.3750610515E-003,3.3955584755E-003,Pass,Pass,0.0000000000,0.0000000000,Pass,Pass
 Warmup Convergence Information,PERIMETER_BOT_ZN_4,RunPeriod: RUNPERIOD 1,4.4340635812E-003,4.9957107158E-003,Pass,Pass,0.0000000000,0.0000000000,Pass,Pass
 Warmup Convergence Information,PERIMETER_MID_ZN_3,RunPeriod: RUNPERIOD 1,3.1836745699E-003,3.4144949819E-003,Pass,Pass,0.0000000000,0.0000000000,Pass,Pass
 Warmup Convergence Information,PERIMETER_MID_ZN_2,RunPeriod: RUNPERIOD 1,7.5094332136E-003,9.1653694296E-003,Pass,Pass,0.0000000000,0.0000000000,Pass,Pass
 Warmup Convergence Information,PERIMETER_MID_ZN_1,RunPeriod: RUNPERIOD 1,4.0825923861E-003,3.6718388828E-003,Pass,Pass,0.0000000000,0.0000000000,Pass,Pass
 Warmup Convergence Information,PERIMETER_MID_ZN_4,RunPeriod: RUNPERIOD 1,4.5528198354E-003,5.1595272154E-003,Pass,Pass,0.0000000000,0.0000000000,Pass,Pass
! <ConductionFiniteDifference Numerical Parameters>, Starting Relaxation Factor, Final Relaxation Factor
ConductionFiniteDifference Numerical Parameters, 1.000, 1.000
! <Program Control Information:Threads/Parallel Sims>, Threading Supported,Maximum Number of Threads, Env Set Threads (OMP_NUM_THREADS), EP Env Set Threads (EP_OMP_NUM_THREADS), IDF Set Threads, Number of Threads Used (Interior Radiant Exchange), Number Nominal Surfaces, Number Parallel Sims
Program Control:Threads/Parallel Sims, No,1, N/A, N/A, N/A, N/A, N/A, N/A
End of Data
