Program Version,EnergyPlus, Version 9.4.0-998c4b761e, YMD=2021.07.14 00:59,
   ** Severe  ** <root>[RunPeriod][RUNPERIOD 1][begin_day_of_month] - Value type "string" for input "%BeginDay%" not permitted by 'type' constraint.
   ** Severe  ** <root>[RunPeriod][RUNPERIOD 1][begin_month] - Value type "string" for input "%BeginMon%" not permitted by 'type' constraint.
   ** Severe  ** <root>[RunPeriod][RUNPERIOD 1][end_day_of_month] - Value type "string" for input "%EndDay%" not permitted by 'type' constraint.
   ** Severe  ** <root>[RunPeriod][RUNPERIOD 1][end_month] - Value type "string" for input "%EndMon%" not permitted by 'type' constraint.
   **  Fatal  ** Errors occurred on processing input file. Preceding condition(s) cause termination.
   ...Summary of Errors that led to program termination:
   ..... Reference severe error count=4
   ..... Last severe error=<root>[RunPeriod][RUNPERIOD 1][end_month] - Value type "string" for input "%EndMon%" not permitted by 'type' constraint.
   ************* Warning:  Node connection errors not checked - most system input has not been read (see previous warning).
   ************* Fatal error -- final processing.  Program exited before simulations began.  See previous error messages.
   ************* EnergyPlus Warmup Error Summary. During Warmup: 0 Warning; 0 Severe Errors.
   ************* EnergyPlus Sizing Error Summary. During Sizing: 0 Warning; 0 Severe Errors.
   ************* EnergyPlus Terminated--Fatal Error Detected. 0 Warning; 4 Severe Errors; Elapsed Time=00hr 00min  0.42sec
