Program Version,EnergyPlus, Version 9.4.0-998c4b761e, YMD=2021.07.14 00:55
